* PEX produced on Thu Apr  9 04:03:40 PM CEST 2026 using /foss/tools/sak/sak-pex.sh with m=3 and s=1
* NGSPICE file created from sparx_powdet_sbd_pex.ext - technology: ihp-sg13g2

.subckt sparx_powdet_sbd_pex vout vref vdd rfin vss
X0 vss.t22 dw_n3746_n7778.t41 vout.t17 vss.t78 sg13_lv_nmos ad=0.475p pd=2.88u as=0.475p ps=2.88u w=2.5u l=0.13u
X1 vdd.t43 vss.t63 cap_cmim l=10u w=10u
X2 vss.t42 dw_n2478_n7778.t5 vref.t1 vss.t41 sg13_lv_nmos ad=0.475p pd=2.88u as=0.475p ps=2.88u w=2.5u l=0.13u
X3 vdd.t57 vss.t48 cap_cmim l=10u w=10u
X4 a_n3394_n9100.t25 vss.t0 cap_cmim l=10u w=10u
X5 a_n3394_n9100.t28 vss.t81 cap_cmim l=10u w=10u
X6 a_n3394_n9100.t9 vss.t39 cap_cmim l=10u w=10u
X7 vdd.t7 dw_n3746_n7778.t3 vout.t10 vdd.t0 sg13_lv_pmos ad=0.95p pd=5.38u as=0.95p ps=5.38u w=5u l=0.13u
X8 a_n3394_n9100.t10 vss.t13 cap_cmim l=10u w=10u
X9 vdd.t55 vss.t50 cap_cmim l=10u w=10u
X10 dw_n2478_n7778.t0 vref.t0 vss.t37 rppd l=1.5u w=0.5u
X11 vdd.t40 vss.t66 cap_cmim l=10u w=10u
X12 vdd.t48 vss.t58 cap_cmim l=10u w=10u
X13 vout.t12 dw_n3746_n7778.t28 vss.t31 vss.t30 sg13_lv_nmos ad=0.475p pd=2.88u as=0.475p ps=2.88u w=2.5u l=0.13u
X14 vdd.t41 vss.t65 cap_cmim l=10u w=10u
X15 a_n3394_n9100.t18 vss.t14 cap_cmim l=10u w=10u
X16 vss.t18 dw_n3746_n7778.t13 vout.t19 vss.t87 sg13_lv_nmos ad=0.475p pd=2.88u as=0.475p ps=2.88u w=2.5u l=0.13u
X17 vdd.t13 dw_n3746_n7778.t32 vout.t9 vdd.t0 sg13_lv_pmos ad=0.95p pd=5.38u as=0.95p ps=5.38u w=5u l=0.13u
X18 vdd.t46 vss.t60 cap_cmim l=10u w=10u
X19 vout.t15 dw_n3746_n7778.t20 vss.t44 vss.t99 sg13_lv_nmos ad=0.475p pd=2.88u as=0.475p ps=2.88u w=2.5u l=0.13u
X20 vdd.t5 dw_n3746_n7778.t23 vout.t6 vdd.t0 sg13_lv_pmos ad=0.95p pd=5.38u as=0.95p ps=5.38u w=5u l=0.13u
X21 vdd.t35 vss.t71 cap_cmim l=10u w=10u
X22 vdd.t34 vss.t72 cap_cmim l=10u w=10u
X23 a_n3394_n9100.t8 vss.t95 cap_cmim l=10u w=10u
X24 vdd.t3 dw_n3746_n7778.t11 vout.t2 vdd.t0 sg13_lv_pmos ad=0.95p pd=5.38u as=0.95p ps=5.38u w=5u l=0.13u
X25 vout.t11 dw_n3746_n7778.t18 vss.t7 vss.t28 sg13_lv_nmos ad=0.475p pd=2.88u as=0.475p ps=2.88u w=2.5u l=0.13u
X26 vdd.t42 vss.t64 cap_cmim l=9u w=6.8u
X27 a_n3394_n9100.t15 vss.t85 cap_cmim l=10u w=10u
X28 vdd.t37 vss.t69 cap_cmim l=9u w=6.8u
X29 vss.t36 dw_n3746_n7778.t39 vout.t13 vss.t35 sg13_lv_nmos ad=0.475p pd=2.88u as=0.475p ps=2.88u w=2.5u l=0.13u
X30 a_n3394_n9100.t12 vss.t29 cap_cmim l=10u w=10u
X31 vss.t3 dw_n3746_n7778.t15 vout.t1 vss.t2 sg13_lv_nmos ad=0.475p pd=2.88u as=0.475p ps=2.88u w=2.5u l=0.13u
X32 a_n3394_n9100.t17 vss.t15 cap_cmim l=10u w=10u
X33 vdd vss.t52 cap_cmim l=10u w=10u
X34 a_n3394_n9100.t6 vss.t12 cap_cmim l=10u w=10u
X35 vdd.t32 vss.t74 cap_cmim l=10u w=10u
X36 vout.t20 dw_n3746_n7778.t6 vdd.t1 vdd.t0 sg13_lv_pmos ad=0.95p pd=5.38u as=0.95p ps=5.38u w=5u l=0.13u
X37 a_n3394_n9100.t14 vss.t102 cap_cmim l=10u w=10u
X38 vdd.t4 dw_n3746_n7778.t25 vout.t5 vdd.t0 sg13_lv_pmos ad=0.95p pd=5.38u as=0.95p ps=5.38u w=5u l=0.13u
X39 vdd.t44 vss.t62 cap_cmim l=10u w=10u
X40 vout.t0 dw_n3746_n7778.t4 vdd.t7 vdd.t0 sg13_lv_pmos ad=0.95p pd=5.38u as=0.95p ps=5.38u w=5u l=0.13u
X41 vref.t1 dw_n2478_n7778.t4 vss.t46 vss.t86 sg13_lv_nmos ad=0.475p pd=2.88u as=0.475p ps=2.88u w=2.5u l=0.13u
X42 vdd.t9 dw_n3746_n7778.t30 vout.t14 vdd.t0 sg13_lv_pmos ad=0.95p pd=5.38u as=0.95p ps=5.38u w=5u l=0.13u
X43 a_n3394_n9100.t30 vss cap_cmim l=10u w=10u
X44 vdd.t52 vss.t54 cap_cmim l=10u w=10u
X45 vdd.t50 vss.t56 cap_cmim l=10u w=10u
X46 vout.t10 dw_n3746_n7778.t2 vdd.t17 vdd.t0 sg13_lv_pmos ad=0.95p pd=5.38u as=0.95p ps=5.38u w=5u l=0.13u
X47 vdd.t19 dw_n2478_n7778.t3 vref.t2 vdd.t0 sg13_lv_pmos ad=0.95p pd=5.38u as=0.95p ps=5.38u w=5u l=0.13u
X48 vout.t16 dw_n3746_n7778.t0 vss.t37 rppd l=1.5u w=0.5u
X49 a_n3394_n9100.t16 vss.t33 cap_cmim l=10u w=10u
X50 a_n3394_n9100.t27 vss.t94 cap_cmim l=10u w=10u
X51 vout.t1 dw_n3746_n7778.t14 vss.t18 vss.t17 sg13_lv_nmos ad=0.475p pd=2.88u as=0.475p ps=2.88u w=2.5u l=0.13u
X52 vss.t92 dw_n3746_n7778.t35 vout.t12 vss.t91 sg13_lv_nmos ad=0.475p pd=2.88u as=0.475p ps=2.88u w=2.5u l=0.13u
X53 vdd.t38 vss.t68 cap_cmim l=10u w=10u
X54 a_n3394_n9100.t20 vss.t83 cap_cmim l=10u w=10u
X55 vout.t19 dw_n3746_n7778.t12 vss.t25 vss.t93 sg13_lv_nmos ad=0.475p pd=2.88u as=0.475p ps=2.88u w=2.5u l=0.13u
X56 vss.t44 dw_n3746_n7778.t19 vout.t11 vss.t43 sg13_lv_nmos ad=0.475p pd=2.88u as=0.475p ps=2.88u w=2.5u l=0.13u
X57 vss.t10 dw_n3746_n7778.t37 vout.t4 vss.t9 sg13_lv_nmos ad=0.475p pd=2.88u as=0.475p ps=2.88u w=2.5u l=0.13u
X58 vout.t8 dw_n3746_n7778.t33 vdd.t13 vdd.t0 sg13_lv_pmos ad=0.95p pd=5.38u as=0.95p ps=5.38u w=5u l=0.13u
X59 a_n3394_n9100.t24 vss.t27 cap_cmim l=10u w=10u
X60 a_n3394_n9100.t26 vss.t11 cap_cmim l=10u w=10u
X61 a_n2470_n8530.t1 dw_n2478_n7778.t1 vss schottky_nbl1 l=1.2u w=2.655u
X62 vout.t2 dw_n3746_n7778.t10 vdd.t12 vdd.t0 sg13_lv_pmos ad=0.95p pd=5.38u as=0.95p ps=5.38u w=5u l=0.13u
X63 vss.t7 dw_n3746_n7778.t17 vout.t3 vss.t6 sg13_lv_nmos ad=0.475p pd=2.88u as=0.475p ps=2.88u w=2.5u l=0.13u
X64 vdd.t8 vdd.t14 vdd.t15 vdd.t0 sg13_lv_pmos ad=1.7p pd=10.68u as=0 ps=0 w=5u l=0.13u
X65 vout.t6 dw_n3746_n7778.t22 vdd.t19 vdd.t0 sg13_lv_pmos ad=0.95p pd=5.38u as=0.95p ps=5.38u w=5u l=0.13u
X66 a_n3636_n7694.t2 dw_n3746_n7778.t1 vss schottky_nbl1 l=1.2u w=2.655u
X67 vout.t7 dw_n3746_n7778.t8 vdd.t6 vdd.t0 sg13_lv_pmos ad=0.95p pd=5.38u as=0.95p ps=5.38u w=5u l=0.13u
X68 vss.t31 dw_n3746_n7778.t27 vout.t18 vss.t82 sg13_lv_nmos ad=0.475p pd=2.88u as=0.475p ps=2.88u w=2.5u l=0.13u
X69 vout.t17 dw_n3746_n7778.t40 vss.t36 vss.t100 sg13_lv_nmos ad=0.475p pd=2.88u as=0.475p ps=2.88u w=2.5u l=0.13u
X70 vdd.t53 vss.t53 cap_cmim l=10u w=10u
X71 a_n3394_n9100.t4 vss.t4 cap_cmim l=10u w=10u
X72 a_n3394_n9100.t5 vss.t8 cap_cmim l=10u w=10u
X73 vss.t22 vss.t19 vss.t21 vss.t20 sg13_lv_nmos ad=0.85p pd=5.68u as=0 ps=0 w=2.5u l=0.13u
X74 vout.t18 dw_n3746_n7778.t26 vss.t42 vss.t101 sg13_lv_nmos ad=0.475p pd=2.88u as=0.475p ps=2.88u w=2.5u l=0.13u
X75 vdd.t33 vss.t73 cap_cmim l=10u w=10u
X76 vdd.t31 vss.t75 cap_cmim l=10u w=10u
X77 a_n3394_n9100.t23 vss.t80 cap_cmim l=10u w=10u
X78 vdd.t51 vss.t55 cap_cmim l=10u w=10u
X79 vdd.t1 dw_n3746_n7778.t5 vout.t0 vdd.t0 sg13_lv_pmos ad=0.95p pd=5.38u as=0.95p ps=5.38u w=5u l=0.13u
X80 a_n3394_n9100.t11 vss.t88 cap_cmim l=10u w=10u
X81 vout.t14 dw_n3746_n7778.t29 vdd.t4 vdd.t0 sg13_lv_pmos ad=0.95p pd=5.38u as=0.95p ps=5.38u w=5u l=0.13u
X82 a_n3394_n9100.t13 vss.t38 cap_cmim l=10u w=10u
X83 rfin.t0 a_n3636_n7694.t0 cap_cmim l=10u w=10u
X84 a_n3394_n9100.t3 vss.t32 cap_cmim l=10u w=10u
X85 vss.t46 dw_n3746_n7778.t21 vout.t15 vss.t45 sg13_lv_nmos ad=0.475p pd=2.88u as=0.475p ps=2.88u w=2.5u l=0.13u
X86 vout.t9 dw_n3746_n7778.t31 vdd.t9 vdd.t0 sg13_lv_pmos ad=0.95p pd=5.38u as=0.95p ps=5.38u w=5u l=0.13u
X87 vdd.t54 vss.t51 cap_cmim l=10u w=10u
X88 vdd.t56 vss.t49 cap_cmim l=10u w=10u
X89 vdd.t18 vdd.t16 vdd.t17 vdd.t0 sg13_lv_pmos ad=0.95p pd=5.38u as=0 ps=0 w=5u l=0.13u
X90 vref.t2 dw_n2478_n7778.t2 vdd.t3 vdd.t0 sg13_lv_pmos ad=0.95p pd=5.38u as=0.95p ps=5.38u w=5u l=0.13u
X91 vdd.t36 vss.t70 cap_cmim l=10u w=10u
X92 a_n3394_n9100.t32 vss.t96 cap_cmim l=10u w=10u
X93 vout.t4 dw_n3746_n7778.t36 vss.t92 vss.t97 sg13_lv_nmos ad=0.475p pd=2.88u as=0.475p ps=2.88u w=2.5u l=0.13u
X94 a_n2470_n8530.t0 a_n3394_n9100.t2 vss.t98 rsil l=2.5u w=0.5u
X95 a_n3394_n9100.t0 vdd.t2 vss.t1 rhigh l=2u w=0.5u
X96 a_n3394_n9100.t7 vss.t5 cap_cmim l=10u w=10u
X97 vdd.t45 vss.t61 cap_cmim l=10u w=10u
X98 vdd.t47 vss.t59 cap_cmim l=10u w=10u
X99 vss.t26 vss.t23 vss.t25 vss.t24 sg13_lv_nmos ad=0.475p pd=2.88u as=0 ps=0 w=2.5u l=0.13u
X100 vout.t13 dw_n3746_n7778.t38 vss.t10 vss.t89 sg13_lv_nmos ad=0.475p pd=2.88u as=0.475p ps=2.88u w=2.5u l=0.13u
X101 vdd.t8 dw_n3746_n7778.t34 vout.t8 vdd.t0 sg13_lv_pmos ad=0.95p pd=5.38u as=0.95p ps=5.38u w=5u l=0.13u
X102 a_n3394_n9100.t22 vss.t79 cap_cmim l=10u w=10u
X103 a_n3394_n9100.t29 vss.t16 cap_cmim l=10u w=10u
X104 a_n3394_n9100.t31 vss.t40 cap_cmim l=10u w=10u
X105 vdd.t12 dw_n3746_n7778.t9 vout.t7 vdd.t0 sg13_lv_pmos ad=0.95p pd=5.38u as=0.95p ps=5.38u w=5u l=0.13u
X106 vout.t3 dw_n3746_n7778.t16 vss.t3 vss.t34 sg13_lv_nmos ad=0.475p pd=2.88u as=0.475p ps=2.88u w=2.5u l=0.13u
X107 vdd.t49 vss.t57 cap_cmim l=10u w=10u
X108 vdd.t39 vss.t67 cap_cmim l=10u w=10u
X109 vdd.t6 dw_n3746_n7778.t7 vout.t20 vdd.t0 sg13_lv_pmos ad=0.95p pd=5.38u as=0.95p ps=5.38u w=5u l=0.13u
X110 a_n3394_n9100.t19 vss.t47 cap_cmim l=10u w=10u
X111 a_n3394_n9100.t21 vss.t90 cap_cmim l=10u w=10u
X112 a_n3636_n7694.t1 a_n3394_n9100.t1 vss.t84 rsil l=2.5u w=0.5u
X113 vdd.t29 vss.t77 cap_cmim l=10u w=10u
X114 vdd.t30 vss.t76 cap_cmim l=10u w=10u
X115 vout.t5 dw_n3746_n7778.t24 vdd.t5 vdd.t0 sg13_lv_pmos ad=0.95p pd=5.38u as=0.95p ps=5.38u w=5u l=0.13u
R0 rfin.n0 rfin.t0 0.0951377
R1 rfin rfin.n0 0.0014714
R2 rfin.n0 rfin 0.00147126
R3 vref vref.t0 21.7505
R4 vref vref.t1 12.4291
R5 vref vref.t2 7.14891
R6 vout vout.t16 21.7505
R7 vout.n7 vout.t19 6.4619
R8 vout.n11 vout.t17 6.3967
R9 vout.n11 vout.t13 6.39662
R10 vout.n11 vout.t4 6.39662
R11 vout.n11 vout.t12 6.39662
R12 vout.n11 vout.t18 6.39662
R13 vout.n5 vout.t15 6.39662
R14 vout.n6 vout.t11 6.39662
R15 vout.n8 vout.t3 6.39662
R16 vout.n7 vout.t1 6.39662
R17 vout.n0 vout.t10 3.54599
R18 vout.n4 vout.t8 3.5116
R19 vout.n4 vout.t9 3.5116
R20 vout.n4 vout.t14 3.5116
R21 vout.n4 vout.t5 3.5116
R22 vout.n4 vout.t6 3.5116
R23 vout.n3 vout.t2 3.5116
R24 vout.n2 vout.t7 3.5116
R25 vout.n1 vout.t20 3.5116
R26 vout.n0 vout.t0 3.5116
R27 vout.n10 vout.n9 0.732664
R28 vout vout.n4 0.148332
R29 vout vout.n11 0.126846
R30 vout.n10 vout.n5 0.12466
R31 vout.n4 vout.n3 0.0926389
R32 vout.n6 vout.n5 0.06578
R33 vout.n8 vout.n7 0.06578
R34 vout.n9 vout.n8 0.06258
R35 vout.n3 vout.n2 0.0348908
R36 vout.n2 vout.n1 0.0348908
R37 vout.n1 vout.n0 0.0348908
R38 vout.n11 vout.n10 0.0146869
R39 vout.n9 vout.n6 0.0037
R40 vdd.t33 vdd.t2 19.16
R41 vdd.n7 vdd.t16 11.2433
R42 vdd.n8 vdd.t14 11.2433
R43 vdd.n13 vdd.t18 3.5756
R44 vdd.n0 vdd.t15 3.5756
R45 vdd.n13 vdd.t17 3.5316
R46 vdd.n14 vdd.t7 3.5316
R47 vdd.n15 vdd.t1 3.5316
R48 vdd.n16 vdd.t6 3.5316
R49 vdd.n17 vdd.t12 3.5316
R50 vdd.n18 vdd.t3 3.5316
R51 vdd.n5 vdd.t19 3.5316
R52 vdd.n4 vdd.t5 3.5316
R53 vdd.n3 vdd.t4 3.5316
R54 vdd.n2 vdd.t9 3.5316
R55 vdd.n1 vdd.t13 3.5316
R56 vdd.n0 vdd.t8 3.5316
R57 vdd.n11 vdd.n7 1.42974
R58 vdd.n8 vdd.n6 1.42344
R59 vdd.n9 vdd.n7 1.39035
R60 vdd.n9 vdd.n8 1.38309
R61 vdd.n12 vdd.n6 0.79802
R62 vdd.n12 vdd.n11 0.79691
R63 vdd.n20 vdd.n19 0.387055
R64 vdd.n10 vdd.t0 0.112342
R65 vdd.n1 vdd.n0 0.0885
R66 vdd.n2 vdd.n1 0.0885
R67 vdd.n3 vdd.n2 0.0885
R68 vdd.n4 vdd.n3 0.0885
R69 vdd.n5 vdd.n4 0.0885
R70 vdd.n18 vdd.n17 0.0885
R71 vdd.n17 vdd.n16 0.0885
R72 vdd.n16 vdd.n15 0.0885
R73 vdd.n15 vdd.n14 0.0885
R74 vdd.n14 vdd.n13 0.0885
R75 vdd.n19 vdd.n12 0.0862143
R76 vdd.n20 vdd.t37 0.0843
R77 vdd.t42 vdd.n20 0.0843
R78 vdd.n10 vdd.n6 0.0830341
R79 vdd.n11 vdd.n10 0.0827984
R80 vdd.n19 vdd.n5 0.0445
R81 vdd.n19 vdd.n18 0.0445
R82 vdd.t37 vdd.t38 0.0332986
R83 vdd.t43 vdd.t42 0.0332986
R84 vdd.n10 vdd.n9 0.0273723
R85 vdd vdd.t54 0.02588
R86 vdd.t54 vdd.t55 0.02588
R87 vdd.t55 vdd.t56 0.02588
R88 vdd.t56 vdd.t57 0.02588
R89 vdd.t48 vdd.t47 0.02588
R90 vdd.t52 vdd.t51 0.02588
R91 vdd.t51 vdd.t50 0.02588
R92 vdd.t45 vdd.t46 0.02588
R93 vdd.t47 vdd.t46 0.02588
R94 vdd.t43 vdd.t41 0.02588
R95 vdd.t41 vdd.t40 0.02588
R96 vdd.t35 vdd.t36 0.02588
R97 vdd.t36 vdd.t38 0.02588
R98 vdd.t32 vdd.t33 0.02588
R99 vdd.t31 vdd.t32 0.02588
R100 vdd.t30 vdd.t31 0.02588
R101 vdd.t29 vdd.t30 0.02588
R102 vdd.t34 vdd.t39 0.02588
R103 vdd.t39 vdd.t44 0.02588
R104 vdd.t44 vdd.t49 0.02588
R105 vdd.t57 vdd.t53 0.01688
R106 vdd.t53 vdd.t48 0.01688
R107 vdd.t53 vdd.t52 0.01688
R108 vdd.t50 vdd.t49 0.01688
R109 vdd.t44 vdd.t45 0.01688
R110 vdd.t40 vdd.t39 0.01688
R111 vdd.t35 vdd.t34 0.01688
R112 vdd.t34 vdd.t29 0.01688
R113 vdd vdd.t49 0.01688
R114 vdd.t31 vdd.t36 0.00788
R115 vdd.t41 vdd.t36 0.00788
R116 vdd.t41 vdd.t46 0.00788
R117 vdd.t46 vdd.t51 0.00788
R118 vdd.t47 vdd.t52 0.00788
R119 vdd.t56 vdd.t52 0.00788
R120 vdd.t55 vdd.t51 0.00788
R121 vdd.t54 vdd.t50 0.00788
R122 vdd.t40 vdd.t45 0.00788
R123 vdd.t45 vdd.t50 0.00788
R124 vdd.t43 vdd.t38 0.00788
R125 vdd.t47 vdd.t43 0.00788
R126 vdd.t35 vdd.t30 0.00788
R127 vdd.t40 vdd.t35 0.00788
R128 vdd.t32 vdd.t38 0.00788
R129 vss.n84 vss.t98 5876.96
R130 vss.n76 vss.n75 5537.89
R131 vss.n110 vss.n85 4909.32
R132 vss.t1 vss.n84 3087.21
R133 vss.n75 vss.t84 1588.69
R134 vss.n85 vss.n35 1457.85
R135 vss.t98 vss.n83 931.034
R136 vss.t84 vss.n74 931.034
R137 vss.n54 vss.n36 842.245
R138 vss.n35 vss.n20 817.216
R139 vss.n56 vss.n35 735.946
R140 vss.n76 vss.n54 446.913
R141 vss.n84 vss.n36 430.233
R142 vss.n83 vss.n37 206.898
R143 vss.n74 vss.n37 206.898
R144 vss.n76 vss.n71 198.214
R145 vss.n47 vss.n37 192.857
R146 vss.n85 vss.t1 99.8953
R147 vss.n69 vss.n40 31.2294
R148 vss.n69 vss.n41 31.2294
R149 vss.n67 vss.n41 31.2294
R150 vss.n67 vss.n42 31.2294
R151 vss.n65 vss.n42 31.2294
R152 vss.n65 vss.n43 31.2294
R153 vss.n62 vss.n43 31.2294
R154 vss.n62 vss.n44 31.2294
R155 vss.n58 vss.n44 31.2294
R156 vss.t86 vss.t41 30.5029
R157 vss.n110 vss.n26 26.7841
R158 vss.n20 vss.t24 19.3129
R159 vss.n26 vss.t20 19.309
R160 vss.n33 vss.t78 17.644
R161 vss.n25 vss.t35 17.644
R162 vss.n32 vss.t9 17.644
R163 vss.n24 vss.t91 17.644
R164 vss.n23 vss.t99 17.644
R165 vss.n30 vss.t28 17.644
R166 vss.n22 vss.t34 17.644
R167 vss.n29 vss.t17 17.644
R168 vss.n21 vss.t93 17.644
R169 vss.n73 vss.n72 17.0181
R170 vss.n38 vss.n36 17.0005
R171 vss.n81 vss.n47 17.0005
R172 vss.n81 vss.n45 17.0005
R173 vss.n78 vss.n71 17.0005
R174 vss.n78 vss.n63 17.0005
R175 vss.n81 vss.n80 17.0005
R176 vss.n78 vss.n77 17.0005
R177 vss.n77 vss.n73 17.0005
R178 vss.n95 vss.n94 17.0005
R179 vss.n71 vss.n40 15.6239
R180 vss.n58 vss.n47 15.6061
R181 vss.t37 vss.t82 14.6536
R182 vss.n33 vss.t100 12.8594
R183 vss.n25 vss.t89 12.8594
R184 vss.n32 vss.t97 12.8594
R185 vss.n24 vss.t30 12.8594
R186 vss.n31 vss.t101 12.8594
R187 vss.n23 vss.t45 12.8594
R188 vss.n30 vss.t43 12.8594
R189 vss.n22 vss.t6 12.8594
R190 vss.n29 vss.t2 12.8594
R191 vss.n21 vss.t87 12.8594
R192 vss.t100 vss.n9 12.1076
R193 vss.t97 vss.n11 12.1076
R194 vss.t101 vss.n13 12.1076
R195 vss.t43 vss.n15 12.1076
R196 vss.t2 vss.n17 12.1076
R197 vss.t24 vss.n19 12.1076
R198 vss.t20 vss.n8 12.1071
R199 vss.t89 vss.n10 12.1071
R200 vss.t30 vss.n12 12.1071
R201 vss.t87 vss.n18 12.1071
R202 vss.t6 vss.n16 12.1071
R203 vss.t45 vss.n14 12.1071
R204 vss.n7 vss.t23 11.2187
R205 vss.n92 vss.t19 11.2187
R206 vss.n77 vss.n76 10.168
R207 vss.n57 vss.n56 8.501
R208 vss.n110 vss.n86 8.501
R209 vss.n110 vss.n87 8.501
R210 vss.n110 vss.n88 8.501
R211 vss.n110 vss.n89 8.501
R212 vss.n110 vss.n90 8.501
R213 vss.n110 vss.n91 8.501
R214 vss.n110 vss.n109 8.501
R215 vss.n111 vss.n110 8.501
R216 vss.n112 vss.n25 8.5005
R217 vss.n112 vss.n24 8.5005
R218 vss.n112 vss.n23 8.5005
R219 vss.n112 vss.n22 8.5005
R220 vss.n112 vss.n21 8.5005
R221 vss.n112 vss.n29 8.5005
R222 vss.n112 vss.n30 8.5005
R223 vss.n112 vss.n31 8.5005
R224 vss.n112 vss.n32 8.5005
R225 vss.n112 vss.n33 8.5005
R226 vss.n72 vss.n38 8.49245
R227 vss.n78 vss.n60 8.49245
R228 vss.n81 vss.n48 8.49245
R229 vss.n81 vss.n49 8.49245
R230 vss.n81 vss.n50 8.49245
R231 vss.n81 vss.n51 8.49245
R232 vss.n81 vss.n52 8.49245
R233 vss.n78 vss.n59 8.49245
R234 vss.n81 vss.n46 8.49233
R235 vss.n79 vss.n78 8.49233
R236 vss.n78 vss.n70 8.49232
R237 vss.n78 vss.n68 8.49232
R238 vss.n78 vss.n66 8.49232
R239 vss.n78 vss.n64 8.49232
R240 vss.n97 vss.n96 8.46995
R241 vss.n99 vss.n98 8.46995
R242 vss.n103 vss.n102 8.46995
R243 vss.n105 vss.n104 8.46995
R244 vss.n108 vss.n107 8.46995
R245 vss.n106 vss.n34 8.46995
R246 vss.n101 vss.n100 8.46086
R247 vss.t78 vss.n8 7.32294
R248 vss.t9 vss.n10 7.32294
R249 vss.t82 vss.n12 7.32294
R250 vss.n14 vss.t86 7.32294
R251 vss.t28 vss.n16 7.32294
R252 vss.t17 vss.n18 7.32294
R253 vss.t99 vss.n15 7.32242
R254 vss.t34 vss.n17 7.32242
R255 vss.t93 vss.n19 7.32242
R256 vss.t41 vss.n13 7.32242
R257 vss.t91 vss.n11 7.32242
R258 vss.t35 vss.n9 7.32242
R259 vss.n74 vss.n61 5.66778
R260 vss.n83 vss.n82 5.66767
R261 vss.n94 vss.n93 5.61281
R262 vss.n0 vss.t21 4.80673
R263 vss.n115 vss.t26 4.80673
R264 vss.n0 vss.t22 4.76273
R265 vss.n1 vss.t36 4.76273
R266 vss.n2 vss.t10 4.76273
R267 vss.n3 vss.t92 4.76273
R268 vss.n4 vss.t31 4.76273
R269 vss.n5 vss.t42 4.76273
R270 vss.n120 vss.t46 4.76273
R271 vss.n119 vss.t44 4.76273
R272 vss.n118 vss.t7 4.76273
R273 vss.n117 vss.t3 4.76273
R274 vss.n116 vss.t18 4.76273
R275 vss.n115 vss.t25 4.76273
R276 vss.n56 vss.n39 4.75145
R277 vss.n77 vss.n39 4.75092
R278 vss.n110 vss.n27 4.251
R279 vss.n55 vss.n53 3.64788
R280 vss.n73 vss.n55 3.64523
R281 vss.n31 vss.t37 2.99093
R282 vss.n112 vss.n19 1.93648
R283 vss.n112 vss.n18 1.93648
R284 vss.n112 vss.n17 1.93648
R285 vss.n112 vss.n16 1.93648
R286 vss.n112 vss.n15 1.93648
R287 vss.n112 vss.n14 1.93648
R288 vss.n112 vss.n13 1.93648
R289 vss.n112 vss.n12 1.93648
R290 vss.n112 vss.n11 1.93648
R291 vss.n112 vss.n10 1.93648
R292 vss.n112 vss.n9 1.93648
R293 vss.n112 vss.n8 1.93648
R294 vss.n81 vss.n39 1.87635
R295 vss.n93 vss.n28 1.59598
R296 vss.n28 vss.n7 1.37506
R297 vss.n113 vss.n7 1.31765
R298 vss.n75 vss.n73 1.21479
R299 vss.n106 vss.n6 0.740759
R300 vss.n114 vss.n113 0.714566
R301 vss.n78 vss.n69 0.698466
R302 vss.n78 vss.n67 0.698466
R303 vss.n78 vss.n65 0.698466
R304 vss.n78 vss.n62 0.698466
R305 vss.n78 vss.n58 0.698466
R306 vss.n81 vss.n44 0.689564
R307 vss.n81 vss.n43 0.689564
R308 vss.n81 vss.n42 0.689564
R309 vss.n81 vss.n41 0.689564
R310 vss.n81 vss.n40 0.689564
R311 vss.n112 vss.n6 0.570224
R312 vss.n114 vss.n6 0.440033
R313 vss.n101 vss.n99 0.268558
R314 vss.n103 vss.n101 0.268558
R315 vss.n122 vss.n121 0.257643
R316 vss.n99 vss.n97 0.250378
R317 vss.n105 vss.n103 0.250378
R318 vss.n107 vss.n105 0.250378
R319 vss.n107 vss.n106 0.250378
R320 vss.n97 vss.n95 0.187772
R321 vss.n113 vss.n112 0.176427
R322 vss.n93 vss.n92 0.165419
R323 vss vss.t16 0.09994
R324 vss.t80 vss.t27 0.09994
R325 vss.t48 vss.t81 0.09994
R326 vss.t53 vss.t54 0.09994
R327 vss.t49 vss.t50 0.09994
R328 vss.t56 vss.t55 0.09994
R329 vss.t65 vss.t66 0.09994
R330 vss.t8 vss.t12 0.09994
R331 vss.t12 vss.t5 0.09994
R332 vss.t88 vss.t29 0.09994
R333 vss.t33 vss.t15 0.09994
R334 vss.t79 vss.t90 0.09994
R335 vss.t40 vss.t96 0.09994
R336 vss.t94 vss.t11 0.09994
R337 vss.t11 vss.t0 0.09994
R338 vss.t90 vss.t83 0.09994
R339 vss.t14 vss.t47 0.09994
R340 vss.t83 vss.t47 0.09994
R341 vss.t85 vss.t33 0.09994
R342 vss.t88 vss.t13 0.09994
R343 vss.t4 vss.t8 0.09994
R344 vss.t74 vss.t75 0.09994
R345 vss.t74 vss.t73 0.09994
R346 vss.t73 vss.t32 0.09994
R347 vss.t95 vss.t39 0.09994
R348 vss.t32 vss.t4 0.09994
R349 vss.t102 vss.t38 0.09994
R350 vss.t14 vss.t58 0.09994
R351 vss.t58 vss.t59 0.09994
R352 vss.t60 vss.t59 0.09994
R353 vss.t61 vss.t60 0.09994
R354 vss.t65 vss.t63 0.09994
R355 vss.t68 vss.t70 0.09994
R356 vss.t71 vss.t70 0.09994
R357 vss.t75 vss.t76 0.09994
R358 vss.t76 vss.t77 0.09994
R359 vss.t71 vss.t72 0.09994
R360 vss.t66 vss.t67 0.09994
R361 vss.t62 vss.t61 0.09994
R362 vss.t51 vss.t52 0.09994
R363 vss.t57 vss.t56 0.09994
R364 vss.t50 vss.t51 0.09994
R365 vss.t54 vss.t55 0.09994
R366 vss.t49 vss.t48 0.09994
R367 vss.t53 vss.t80 0.09994
R368 vss.t81 vss.t16 0.09994
R369 vss.t27 vss.t0 0.09994
R370 vss vss.t40 0.0958543
R371 vss.t68 vss.t69 0.0904498
R372 vss.t63 vss.t64 0.0904498
R373 vss.n1 vss.n0 0.0885
R374 vss.n2 vss.n1 0.0885
R375 vss.n3 vss.n2 0.0885
R376 vss.n4 vss.n3 0.0885
R377 vss.n5 vss.n4 0.0885
R378 vss.n120 vss.n119 0.0885
R379 vss.n119 vss.n118 0.0885
R380 vss.n118 vss.n117 0.0885
R381 vss.n117 vss.n116 0.0885
R382 vss.n116 vss.n115 0.0885
R383 vss.n121 vss.n114 0.0862143
R384 vss.n95 vss.n92 0.0848333
R385 vss.t85 vss.n124 0.0707114
R386 vss.n123 vss.t13 0.0707114
R387 vss.n121 vss.n5 0.0445
R388 vss.n121 vss.n120 0.0445
R389 vss.n112 vss.n28 0.0413403
R390 vss.n79 vss.n52 0.0359606
R391 vss.n70 vss.n52 0.0359606
R392 vss.n70 vss.n51 0.0359606
R393 vss.n68 vss.n51 0.0359606
R394 vss.n68 vss.n50 0.0359606
R395 vss.n66 vss.n50 0.0359606
R396 vss.n66 vss.n49 0.0359606
R397 vss.n64 vss.n49 0.0359606
R398 vss.n64 vss.n48 0.0359606
R399 vss.n59 vss.n46 0.0359606
R400 vss.n60 vss.n46 0.0359606
R401 vss.n72 vss.n60 0.0357199
R402 vss.n63 vss.n45 0.0352368
R403 vss.n80 vss.n55 0.0313772
R404 vss.t39 vss.n123 0.0297286
R405 vss.n124 vss.t102 0.0297286
R406 vss.n124 vss.n122 0.0233627
R407 vss.n123 vss.n122 0.0225
R408 vss.n80 vss.n79 0.0183507
R409 vss.n63 vss.n48 0.01811
R410 vss.n59 vss.n45 0.01811
R411 vss.t102 vss.t47 0.01194
R412 vss.t83 vss.t0 0.01194
R413 vss.t29 vss.t5 0.01194
R414 vss.t29 vss.t15 0.01194
R415 vss.t79 vss.t15 0.01194
R416 vss.t40 vss.t11 0.01194
R417 vss.t96 vss.t94 0.01194
R418 vss.t94 vss.t79 0.01194
R419 vss.t90 vss.t11 0.01194
R420 vss.t90 vss.t33 0.01194
R421 vss.t83 vss.t85 0.01194
R422 vss.t85 vss.t13 0.01194
R423 vss.t88 vss.t33 0.01194
R424 vss.t12 vss.t88 0.01194
R425 vss.t8 vss.t13 0.01194
R426 vss.t38 vss.t95 0.01194
R427 vss.t32 vss.t95 0.01194
R428 vss.t102 vss.t39 0.01194
R429 vss.t4 vss.t39 0.01194
R430 vss.t14 vss.t80 0.01194
R431 vss.t38 vss.t14 0.01194
R432 vss.t54 vss.t59 0.01194
R433 vss.t63 vss.t59 0.01194
R434 vss.t60 vss.t65 0.01194
R435 vss.t65 vss.t70 0.01194
R436 vss.t63 vss.t68 0.01194
R437 vss.t68 vss.t74 0.01194
R438 vss.t75 vss.t70 0.01194
R439 vss.t72 vss.t77 0.01194
R440 vss.t71 vss.t66 0.01194
R441 vss.t76 vss.t71 0.01194
R442 vss.t62 vss.t67 0.01194
R443 vss.t72 vss.t67 0.01194
R444 vss.t61 vss.t56 0.01194
R445 vss.t61 vss.t66 0.01194
R446 vss.t52 vss.t57 0.01194
R447 vss.t57 vss.t62 0.01194
R448 vss.t51 vss.t56 0.01194
R449 vss.t50 vss.t55 0.01194
R450 vss.t60 vss.t55 0.01194
R451 vss.t54 vss.t49 0.01194
R452 vss.t53 vss.t48 0.01194
R453 vss.t58 vss.t53 0.01194
R454 vss.t81 vss.t80 0.01194
R455 vss.t27 vss.t16 0.01194
R456 vss.t27 vss.t47 0.01194
R457 vss vss.t0 0.01194
R458 vss.n112 vss.n26 0.00751867
R459 vss.n53 vss.n38 0.00630064
R460 vss.n81 vss.n53 0.00269837
R461 vss.n112 vss.n27 0.00175
R462 vss.n73 vss.n61 0.00166667
R463 vss.n112 vss.n20 0.00154033
R464 vss.n78 vss.n61 0.00133332
R465 vss.n94 vss.n27 0.00124998
R466 vss.n81 vss.n54 0.00101009
R467 vss.n73 vss.n57 0.001
R468 vss.n82 vss.n38 0.001
R469 vss.n82 vss.n81 0.001
R470 vss.n78 vss.n57 0.001
R471 vss.n94 vss.n86 0.001
R472 vss.n96 vss.n87 0.001
R473 vss.n98 vss.n88 0.001
R474 vss.n100 vss.n89 0.001
R475 vss.n102 vss.n90 0.001
R476 vss.n104 vss.n91 0.001
R477 vss.n109 vss.n108 0.001
R478 vss.n111 vss.n34 0.001
R479 vss.n96 vss.n86 0.001
R480 vss.n98 vss.n87 0.001
R481 vss.n100 vss.n88 0.001
R482 vss.n102 vss.n89 0.001
R483 vss.n104 vss.n90 0.001
R484 vss.n108 vss.n91 0.001
R485 vss.n109 vss.n34 0.001
R486 vss.n112 vss.n111 0.001
R487 a_n2470_n8530.t0 a_n2470_n8530.t1 17.755
R488 a_n3636_n7694.t1 a_n3636_n7694.n0 16.029
R489 a_n3636_n7694.n0 a_n3636_n7694.t0 1.5005
R490 a_n3636_n7694.n0 a_n3636_n7694.t2 1.72641
R491 a_n3394_n9100.t0 a_n3394_n9100.n1 16.4423
R492 a_n3394_n9100.n1 a_n3394_n9100.t3 4.16423
R493 a_n3394_n9100.t3 a_n3394_n9100.t8 0.02588
R494 a_n3394_n9100.t8 a_n3394_n9100.t13 0.02588
R495 a_n3394_n9100.t13 a_n3394_n9100.t18 0.02588
R496 a_n3394_n9100.t18 a_n3394_n9100.t23 0.02588
R497 a_n3394_n9100.t23 a_n3394_n9100.t28 0.01688
R498 a_n3394_n9100.t29 a_n3394_n9100.t28 0.02588
R499 a_n3394_n9100.t29 a_n3394_n9100.t30 0.02588
R500 a_n3394_n9100.t31 a_n3394_n9100.t30 0.02588
R501 a_n3394_n9100.t31 a_n3394_n9100.t32 0.02588
R502 a_n3394_n9100.t27 a_n3394_n9100.t32 0.01688
R503 a_n3394_n9100.t22 a_n3394_n9100.t27 0.02588
R504 a_n3394_n9100.t17 a_n3394_n9100.t22 0.02588
R505 a_n3394_n9100.t12 a_n3394_n9100.t17 0.02588
R506 a_n3394_n9100.t7 a_n3394_n9100.t12 0.01688
R507 a_n3394_n9100.t6 a_n3394_n9100.t7 0.02588
R508 a_n3394_n9100.t5 a_n3394_n9100.t6 0.02588
R509 a_n3394_n9100.t4 a_n3394_n9100.t5 0.02588
R510 a_n3394_n9100.t3 a_n3394_n9100.t4 0.01688
R511 a_n3394_n9100.t4 a_n3394_n9100.t9 0.00788
R512 a_n3394_n9100.t9 a_n3394_n9100.t8 0.01688
R513 a_n3394_n9100.t10 a_n3394_n9100.t9 0.02588
R514 a_n3394_n9100.t10 a_n3394_n9100.t11 0.02588
R515 a_n3394_n9100.t11 a_n3394_n9100.t12 0.01688
R516 a_n3394_n9100.t11 a_n3394_n9100.t16 0.00788
R517 a_n3394_n9100.t6 a_n3394_n9100.t11 0.00788
R518 a_n3394_n9100.t15 a_n3394_n9100.t16 0.02588
R519 a_n3394_n9100.t14 a_n3394_n9100.t15 0.02588
R520 a_n3394_n9100.t14 a_n3394_n9100.t13 0.01688
R521 a_n3394_n9100.t14 a_n3394_n9100.t19 0.00788
R522 a_n3394_n9100.t9 a_n3394_n9100.t14 0.00788
R523 a_n3394_n9100.t19 a_n3394_n9100.t18 0.01688
R524 a_n3394_n9100.t19 a_n3394_n9100.t20 0.02588
R525 a_n3394_n9100.t20 a_n3394_n9100.t21 0.02588
R526 a_n3394_n9100.t21 a_n3394_n9100.t22 0.01688
R527 a_n3394_n9100.t21 a_n3394_n9100.t26 0.00788
R528 a_n3394_n9100.t16 a_n3394_n9100.t21 0.00788
R529 a_n3394_n9100.t25 a_n3394_n9100.t26 0.02588
R530 a_n3394_n9100.t24 a_n3394_n9100.t25 0.02588
R531 a_n3394_n9100.t24 a_n3394_n9100.t23 0.01688
R532 a_n3394_n9100.t24 a_n3394_n9100.t29 0.00788
R533 a_n3394_n9100.t19 a_n3394_n9100.t24 0.00788
R534 a_n3394_n9100.t25 a_n3394_n9100.t30 0.00788
R535 a_n3394_n9100.t20 a_n3394_n9100.t25 0.00788
R536 a_n3394_n9100.t26 a_n3394_n9100.t27 0.01688
R537 a_n3394_n9100.t26 a_n3394_n9100.t31 0.00788
R538 a_n3394_n9100.t15 a_n3394_n9100.t20 0.00788
R539 a_n3394_n9100.t10 a_n3394_n9100.t15 0.00788
R540 a_n3394_n9100.t16 a_n3394_n9100.t17 0.01688
R541 a_n3394_n9100.t5 a_n3394_n9100.t10 0.00788
R542 a_n3394_n9100.n0 a_n3394_n9100.t2 15.0005
R543 a_n3394_n9100.n0 a_n3394_n9100.t1 16.1053
R544 a_n3394_n9100.n1 a_n3394_n9100.n0 4.99833
R545 dw_n2478_n7778.t0 dw_n2478_n7778.n2 17.7428
R546 dw_n2478_n7778.n2 dw_n2478_n7778.n3 0.404569
R547 dw_n2478_n7778.n3 dw_n2478_n7778.t4 8.03992
R548 dw_n2478_n7778.n3 dw_n2478_n7778.t5 8.03992
R549 dw_n2478_n7778.n2 dw_n2478_n7778.n1 0.64642
R550 dw_n2478_n7778.n1 dw_n2478_n7778.t1 7.56011
R551 dw_n2478_n7778.n1 dw_n2478_n7778.n0 1.05753
R552 dw_n2478_n7778.n0 dw_n2478_n7778.t2 8.03992
R553 dw_n2478_n7778.n0 dw_n2478_n7778.t3 8.03992
R554 dw_n3746_n7778.t0 dw_n3746_n7778.n37 19.8615
R555 dw_n3746_n7778.n36 dw_n3746_n7778.n0 0.454433
R556 dw_n3746_n7778.n37 dw_n3746_n7778.n36 0.2953
R557 dw_n3746_n7778.n37 dw_n3746_n7778.n18 0.452967
R558 dw_n3746_n7778.n36 dw_n3746_n7778.t1 7.69608
R559 dw_n3746_n7778.n34 dw_n3746_n7778.n35 0.0409324
R560 dw_n3746_n7778.n33 dw_n3746_n7778.n34 0.0409324
R561 dw_n3746_n7778.n32 dw_n3746_n7778.n33 0.0409324
R562 dw_n3746_n7778.n18 dw_n3746_n7778.n32 0.0409324
R563 dw_n3746_n7778.n18 dw_n3746_n7778.n31 0.0409324
R564 dw_n3746_n7778.n31 dw_n3746_n7778.n30 0.0409324
R565 dw_n3746_n7778.n30 dw_n3746_n7778.n29 0.0409324
R566 dw_n3746_n7778.n29 dw_n3746_n7778.n28 0.0409324
R567 dw_n3746_n7778.n28 dw_n3746_n7778.n27 0.121797
R568 dw_n3746_n7778.n27 dw_n3746_n7778.n26 0.0409324
R569 dw_n3746_n7778.n26 dw_n3746_n7778.n25 0.0409324
R570 dw_n3746_n7778.n25 dw_n3746_n7778.n24 0.0409324
R571 dw_n3746_n7778.n24 dw_n3746_n7778.n23 0.0409324
R572 dw_n3746_n7778.n23 dw_n3746_n7778.n22 0.0409324
R573 dw_n3746_n7778.n22 dw_n3746_n7778.n21 0.0409324
R574 dw_n3746_n7778.n21 dw_n3746_n7778.n20 0.0409324
R575 dw_n3746_n7778.n20 dw_n3746_n7778.n19 0.0409324
R576 dw_n3746_n7778.n35 dw_n3746_n7778.t2 11.0804
R577 dw_n3746_n7778.n35 dw_n3746_n7778.t3 11.0399
R578 dw_n3746_n7778.n34 dw_n3746_n7778.t4 11.0399
R579 dw_n3746_n7778.n33 dw_n3746_n7778.t5 11.0399
R580 dw_n3746_n7778.n32 dw_n3746_n7778.t6 11.0399
R581 dw_n3746_n7778.n18 dw_n3746_n7778.t7 11.0399
R582 dw_n3746_n7778.n31 dw_n3746_n7778.t8 11.0399
R583 dw_n3746_n7778.n30 dw_n3746_n7778.t9 11.0399
R584 dw_n3746_n7778.n29 dw_n3746_n7778.t10 11.0399
R585 dw_n3746_n7778.n28 dw_n3746_n7778.t11 11.0399
R586 dw_n3746_n7778.n27 dw_n3746_n7778.t22 11.0399
R587 dw_n3746_n7778.n26 dw_n3746_n7778.t23 11.0399
R588 dw_n3746_n7778.n25 dw_n3746_n7778.t24 11.0399
R589 dw_n3746_n7778.n24 dw_n3746_n7778.t25 11.0399
R590 dw_n3746_n7778.n23 dw_n3746_n7778.t29 11.0399
R591 dw_n3746_n7778.n22 dw_n3746_n7778.t30 11.0399
R592 dw_n3746_n7778.n21 dw_n3746_n7778.t31 11.0399
R593 dw_n3746_n7778.n20 dw_n3746_n7778.t32 11.0399
R594 dw_n3746_n7778.n19 dw_n3746_n7778.t33 11.0399
R595 dw_n3746_n7778.n19 dw_n3746_n7778.t34 11.0804
R596 dw_n3746_n7778.n16 dw_n3746_n7778.n17 0.0409324
R597 dw_n3746_n7778.n15 dw_n3746_n7778.n16 0.0409324
R598 dw_n3746_n7778.n14 dw_n3746_n7778.n15 0.0409324
R599 dw_n3746_n7778.n0 dw_n3746_n7778.n14 0.0409324
R600 dw_n3746_n7778.n0 dw_n3746_n7778.n13 0.0409324
R601 dw_n3746_n7778.n13 dw_n3746_n7778.n12 0.0409324
R602 dw_n3746_n7778.n12 dw_n3746_n7778.n11 0.0409324
R603 dw_n3746_n7778.n11 dw_n3746_n7778.n10 0.0409324
R604 dw_n3746_n7778.n10 dw_n3746_n7778.n9 0.121797
R605 dw_n3746_n7778.n9 dw_n3746_n7778.n8 0.0409324
R606 dw_n3746_n7778.n8 dw_n3746_n7778.n7 0.0409324
R607 dw_n3746_n7778.n7 dw_n3746_n7778.n6 0.0409324
R608 dw_n3746_n7778.n6 dw_n3746_n7778.n5 0.0409324
R609 dw_n3746_n7778.n5 dw_n3746_n7778.n4 0.0409324
R610 dw_n3746_n7778.n4 dw_n3746_n7778.n3 0.0409324
R611 dw_n3746_n7778.n3 dw_n3746_n7778.n2 0.0409324
R612 dw_n3746_n7778.n2 dw_n3746_n7778.n1 0.0409324
R613 dw_n3746_n7778.n17 dw_n3746_n7778.t12 11.0804
R614 dw_n3746_n7778.n17 dw_n3746_n7778.t13 11.0399
R615 dw_n3746_n7778.n16 dw_n3746_n7778.t14 11.0399
R616 dw_n3746_n7778.n15 dw_n3746_n7778.t15 11.0399
R617 dw_n3746_n7778.n14 dw_n3746_n7778.t16 11.0399
R618 dw_n3746_n7778.n0 dw_n3746_n7778.t17 11.0399
R619 dw_n3746_n7778.n13 dw_n3746_n7778.t18 11.0399
R620 dw_n3746_n7778.n12 dw_n3746_n7778.t19 11.0399
R621 dw_n3746_n7778.n11 dw_n3746_n7778.t20 11.0399
R622 dw_n3746_n7778.n10 dw_n3746_n7778.t21 11.0399
R623 dw_n3746_n7778.n9 dw_n3746_n7778.t26 11.0399
R624 dw_n3746_n7778.n8 dw_n3746_n7778.t27 11.0399
R625 dw_n3746_n7778.n7 dw_n3746_n7778.t28 11.0399
R626 dw_n3746_n7778.n6 dw_n3746_n7778.t35 11.0399
R627 dw_n3746_n7778.n5 dw_n3746_n7778.t36 11.0399
R628 dw_n3746_n7778.n4 dw_n3746_n7778.t37 11.0399
R629 dw_n3746_n7778.n3 dw_n3746_n7778.t38 11.0399
R630 dw_n3746_n7778.n2 dw_n3746_n7778.t39 11.0399
R631 dw_n3746_n7778.n1 dw_n3746_n7778.t40 11.0399
R632 dw_n3746_n7778.n1 dw_n3746_n7778.t41 11.0804