* PEX produced on Mon Apr 20 04:47:34 PM CEST 2026 using /foss/tools/sak/sak-pex.sh with m=3 and s=1
* NGSPICE file created from sparx_powdet_sbd_pex.ext - technology: ihp-sg13g2

.subckt sparx_powdet_sbd_pex vout vref vdd rfin vss
X0 vss.t24 dw_n3746_n7778.t41 vout.t9 vss.t58 sg13_lv_nmos ad=0.475p pd=2.88u as=0.475p ps=2.88u w=2.5u l=0.13u
X1 vdd.t43 vss.t43 cap_cmim l=10u w=10u
X2 vss.t2 dw_n2478_n7778.t5 vref.t1 vss.t1 sg13_lv_nmos ad=0.475p pd=2.88u as=0.475p ps=2.88u w=2.5u l=0.13u
X3 vdd.t58 vss.t28 cap_cmim l=10u w=10u
X4 a_n3394_n9100.t25 vss.t82 cap_cmim l=10u w=10u
X5 a_n3394_n9100.t28 vss.t72 cap_cmim l=10u w=10u
X6 a_n3394_n9100.t9 vss.t5 cap_cmim l=10u w=10u
X7 vdd.t14 dw_n3746_n7778.t3 vout.t12 vdd.t0 sg13_lv_pmos ad=0.95p pd=5.38u as=0.95p ps=5.38u w=5u l=0.13u
X8 a_n3394_n9100.t10 vss.t7 cap_cmim l=10u w=10u
X9 vdd.t56 vss.t30 cap_cmim l=10u w=10u
X10 dw_n2478_n7778.t1 vref.t0 vss.t0 rppd l=1.5u w=0.5u
X11 vdd.t40 vss.t46 cap_cmim l=10u w=10u
X12 vdd.t48 vss.t38 cap_cmim l=10u w=10u
X13 vout.t20 dw_n3746_n7778.t28 vss.t17 vss.t92 sg13_lv_nmos ad=0.475p pd=2.88u as=0.475p ps=2.88u w=2.5u l=0.13u
X14 vdd.t41 vss.t45 cap_cmim l=10u w=10u
X15 a_n3394_n9100.t18 vss.t85 cap_cmim l=10u w=10u
X16 vss.t88 dw_n3746_n7778.t13 vout.t2 vss.t95 sg13_lv_nmos ad=0.475p pd=2.88u as=0.475p ps=2.88u w=2.5u l=0.13u
X17 vdd.t12 dw_n3746_n7778.t32 vout.t6 vdd.t0 sg13_lv_pmos ad=0.95p pd=5.38u as=0.95p ps=5.38u w=5u l=0.13u
X18 vdd.t46 vss.t40 cap_cmim l=10u w=10u
X19 vout.t16 dw_n3746_n7778.t20 vss.t79 vss.t86 sg13_lv_nmos ad=0.475p pd=2.88u as=0.475p ps=2.88u w=2.5u l=0.13u
X20 vdd.t19 dw_n3746_n7778.t23 vout.t15 vdd.t0 sg13_lv_pmos ad=0.95p pd=5.38u as=0.95p ps=5.38u w=5u l=0.13u
X21 vdd.t35 vss.t51 cap_cmim l=10u w=10u
X22 vdd.t34 vss.t52 cap_cmim l=10u w=10u
X23 a_n3394_n9100.t8 vss.t6 cap_cmim l=10u w=10u
X24 vdd.t4 dw_n3746_n7778.t11 vout.t17 vdd.t0 sg13_lv_pmos ad=0.95p pd=5.38u as=0.95p ps=5.38u w=5u l=0.13u
X25 vout.t18 dw_n3746_n7778.t18 vss.t67 vss.t102 sg13_lv_nmos ad=0.475p pd=2.88u as=0.475p ps=2.88u w=2.5u l=0.13u
X26 vdd.t42 vss.t44 cap_cmim l=9u w=6.8u
X27 a_n3394_n9100.t15 vss.t70 cap_cmim l=10u w=10u
X28 vdd.t37 vss.t49 cap_cmim l=9u w=6.8u
X29 vss.t19 dw_n3746_n7778.t39 vout.t19 vss.t91 sg13_lv_nmos ad=0.475p pd=2.88u as=0.475p ps=2.88u w=2.5u l=0.13u
X30 a_n3394_n9100.t12 vss.t84 cap_cmim l=10u w=10u
X31 vss.t15 dw_n3746_n7778.t15 vout.t13 vss.t64 sg13_lv_nmos ad=0.475p pd=2.88u as=0.475p ps=2.88u w=2.5u l=0.13u
X32 a_n3394_n9100.t17 vss.t98 cap_cmim l=10u w=10u
X33 vdd.t54 vss.t32 cap_cmim l=10u w=10u
X34 a_n3394_n9100.t6 vss.t13 cap_cmim l=10u w=10u
X35 vdd.t32 vss.t54 cap_cmim l=10u w=10u
X36 vout.t14 dw_n3746_n7778.t6 vdd.t15 vdd.t0 sg13_lv_pmos ad=0.95p pd=5.38u as=0.95p ps=5.38u w=5u l=0.13u
X37 a_n3394_n9100.t14 vss.t89 cap_cmim l=10u w=10u
X38 vdd.t2 dw_n3746_n7778.t25 vout.t5 vdd.t0 sg13_lv_pmos ad=0.95p pd=5.38u as=0.95p ps=5.38u w=5u l=0.13u
X39 vdd.t44 vss.t42 cap_cmim l=10u w=10u
X40 vout.t10 dw_n3746_n7778.t4 vdd.t14 vdd.t0 sg13_lv_pmos ad=0.95p pd=5.38u as=0.95p ps=5.38u w=5u l=0.13u
X41 vref.t1 dw_n2478_n7778.t4 vss.t77 vss.t90 sg13_lv_nmos ad=0.475p pd=2.88u as=0.475p ps=2.88u w=2.5u l=0.13u
X42 vdd.t5 dw_n3746_n7778.t30 vout.t4 vdd.t0 sg13_lv_pmos ad=0.95p pd=5.38u as=0.95p ps=5.38u w=5u l=0.13u
X43 a_n3394_n9100.t30 vss.t61 cap_cmim l=10u w=10u
X44 vdd.t52 vss.t34 cap_cmim l=10u w=10u
X45 vdd.t50 vss.t36 cap_cmim l=10u w=10u
X46 vout.t12 dw_n3746_n7778.t2 vdd.t10 vdd.t0 sg13_lv_pmos ad=0.95p pd=5.38u as=0.95p ps=5.38u w=5u l=0.13u
X47 vdd.t21 dw_n2478_n7778.t3 vref.t2 vdd.t0 sg13_lv_pmos ad=0.95p pd=5.38u as=0.95p ps=5.38u w=5u l=0.13u
X48 vout.t0 dw_n3746_n7778.t0 vss.t0 rppd l=1.5u w=0.5u
X49 a_n3394_n9100.t16 vss.t83 cap_cmim l=10u w=10u
X50 a_n3394_n9100.t27 vss.t99 cap_cmim l=10u w=10u
X51 vout.t13 dw_n3746_n7778.t14 vss.t88 vss.t87 sg13_lv_nmos ad=0.475p pd=2.88u as=0.475p ps=2.88u w=2.5u l=0.13u
X52 vss.t9 dw_n3746_n7778.t35 vout.t20 vss.t103 sg13_lv_nmos ad=0.475p pd=2.88u as=0.475p ps=2.88u w=2.5u l=0.13u
X53 vdd.t38 vss.t48 cap_cmim l=10u w=10u
X54 a_n3394_n9100.t20 vss.t69 cap_cmim l=10u w=10u
X55 vout.t2 dw_n3746_n7778.t12 vss.t12 vss.t11 sg13_lv_nmos ad=0.475p pd=2.88u as=0.475p ps=2.88u w=2.5u l=0.13u
X56 vss.t79 dw_n3746_n7778.t19 vout.t18 vss.t78 sg13_lv_nmos ad=0.475p pd=2.88u as=0.475p ps=2.88u w=2.5u l=0.13u
X57 vss.t94 dw_n3746_n7778.t37 vout.t1 vss.t93 sg13_lv_nmos ad=0.475p pd=2.88u as=0.475p ps=2.88u w=2.5u l=0.13u
X58 vout.t3 dw_n3746_n7778.t33 vdd.t12 vdd.t0 sg13_lv_pmos ad=0.95p pd=5.38u as=0.95p ps=5.38u w=5u l=0.13u
X59 a_n3394_n9100.t24 vss.t73 cap_cmim l=10u w=10u
X60 a_n3394_n9100.t26 vss.t81 cap_cmim l=10u w=10u
X61 a_n2470_n8530.t1 dw_n2478_n7778.t0 vss schottky_nbl1 l=1.2u w=2.655u
X62 vout.t17 dw_n3746_n7778.t10 vdd.t20 vdd.t0 sg13_lv_pmos ad=0.95p pd=5.38u as=0.95p ps=5.38u w=5u l=0.13u
X63 vss.t67 dw_n3746_n7778.t17 vout.t7 vss.t66 sg13_lv_nmos ad=0.475p pd=2.88u as=0.475p ps=2.88u w=2.5u l=0.13u
X64 vdd.t1 vdd.t7 vdd.t8 vdd.t0 sg13_lv_pmos ad=1.7p pd=10.68u as=0 ps=0 w=5u l=0.13u
X65 vout.t15 dw_n3746_n7778.t22 vdd.t21 vdd.t0 sg13_lv_pmos ad=0.95p pd=5.38u as=0.95p ps=5.38u w=5u l=0.13u
X66 a_n3636_n7694.t2 dw_n3746_n7778.t1 vss schottky_nbl1 l=1.2u w=2.655u
X67 vout.t11 dw_n3746_n7778.t8 vdd.t16 vdd.t0 sg13_lv_pmos ad=0.95p pd=5.38u as=0.95p ps=5.38u w=5u l=0.13u
X68 vss.t17 dw_n3746_n7778.t27 vout.t8 vss.t16 sg13_lv_nmos ad=0.475p pd=2.88u as=0.475p ps=2.88u w=2.5u l=0.13u
X69 vout.t9 dw_n3746_n7778.t40 vss.t19 vss.t18 sg13_lv_nmos ad=0.475p pd=2.88u as=0.475p ps=2.88u w=2.5u l=0.13u
X70 vdd.t53 vss.t33 cap_cmim l=10u w=10u
X71 a_n3394_n9100.t4 vss.t100 cap_cmim l=10u w=10u
X72 a_n3394_n9100.t5 vss.t10 cap_cmim l=10u w=10u
X73 vss.t24 vss.t21 vss.t23 vss.t22 sg13_lv_nmos ad=0.85p pd=5.68u as=0 ps=0 w=2.5u l=0.13u
X74 vout.t8 dw_n3746_n7778.t26 vss.t2 vss.t97 sg13_lv_nmos ad=0.475p pd=2.88u as=0.475p ps=2.88u w=2.5u l=0.13u
X75 vdd.t33 vss.t53 cap_cmim l=10u w=10u
X76 vdd.t31 vss.t55 cap_cmim l=10u w=10u
X77 a_n3394_n9100.t23 vss.t68 cap_cmim l=10u w=10u
X78 vdd.t51 vss.t35 cap_cmim l=10u w=10u
X79 vdd.t15 dw_n3746_n7778.t5 vout.t10 vdd.t0 sg13_lv_pmos ad=0.95p pd=5.38u as=0.95p ps=5.38u w=5u l=0.13u
X80 a_n3394_n9100.t11 vss.t59 cap_cmim l=10u w=10u
X81 vout.t4 dw_n3746_n7778.t29 vdd.t2 vdd.t0 sg13_lv_pmos ad=0.95p pd=5.38u as=0.95p ps=5.38u w=5u l=0.13u
X82 a_n3394_n9100.t13 vss.t74 cap_cmim l=10u w=10u
X83 rfin.t0 a_n3636_n7694.t0 cap_cmim l=10u w=10u
X84 a_n3394_n9100.t3 vss.t101 cap_cmim l=10u w=10u
X85 vss.t77 dw_n3746_n7778.t21 vout.t16 vss.t76 sg13_lv_nmos ad=0.475p pd=2.88u as=0.475p ps=2.88u w=2.5u l=0.13u
X86 vout.t6 dw_n3746_n7778.t31 vdd.t5 vdd.t0 sg13_lv_pmos ad=0.95p pd=5.38u as=0.95p ps=5.38u w=5u l=0.13u
X87 vdd.t55 vss.t31 cap_cmim l=10u w=10u
X88 vdd.t57 vss.t29 cap_cmim l=10u w=10u
X89 vdd.t11 vdd.t9 vdd.t10 vdd.t0 sg13_lv_pmos ad=0.95p pd=5.38u as=0 ps=0 w=5u l=0.13u
X90 vref.t2 dw_n2478_n7778.t2 vdd.t4 vdd.t0 sg13_lv_pmos ad=0.95p pd=5.38u as=0.95p ps=5.38u w=5u l=0.13u
X91 vdd.t36 vss.t50 cap_cmim l=10u w=10u
X92 a_n3394_n9100.t32 vss.t71 cap_cmim l=10u w=10u
X93 vout.t1 dw_n3746_n7778.t36 vss.t9 vss.t8 sg13_lv_nmos ad=0.475p pd=2.88u as=0.475p ps=2.88u w=2.5u l=0.13u
X94 a_n2470_n8530.t0 a_n3394_n9100.t1 vss.t4 rsil l=2.5u w=0.5u
X95 a_n3394_n9100.t2 vdd.t6 vss.t20 rhigh l=2u w=0.5u
X96 a_n3394_n9100.t7 vss.t80 cap_cmim l=10u w=10u
X97 vdd.t45 vss.t41 cap_cmim l=10u w=10u
X98 vdd.t47 vss.t39 cap_cmim l=10u w=10u
X99 vss.t27 vss.t25 vss.t12 vss.t26 sg13_lv_nmos ad=0.475p pd=2.88u as=0 ps=0 w=2.5u l=0.13u
X100 vout.t19 dw_n3746_n7778.t38 vss.t94 vss.t96 sg13_lv_nmos ad=0.475p pd=2.88u as=0.475p ps=2.88u w=2.5u l=0.13u
X101 vdd.t1 dw_n3746_n7778.t34 vout.t3 vdd.t0 sg13_lv_pmos ad=0.95p pd=5.38u as=0.95p ps=5.38u w=5u l=0.13u
X102 a_n3394_n9100.t22 vss.t75 cap_cmim l=10u w=10u
X103 a_n3394_n9100.t29 vss.t63 cap_cmim l=10u w=10u
X104 a_n3394_n9100.t31 vss.t65 cap_cmim l=10u w=10u
X105 vdd.t20 dw_n3746_n7778.t9 vout.t11 vdd.t0 sg13_lv_pmos ad=0.95p pd=5.38u as=0.95p ps=5.38u w=5u l=0.13u
X106 vout.t7 dw_n3746_n7778.t16 vss.t15 vss.t14 sg13_lv_nmos ad=0.475p pd=2.88u as=0.475p ps=2.88u w=2.5u l=0.13u
X107 vdd.t49 vss.t37 cap_cmim l=10u w=10u
X108 vdd.t39 vss.t47 cap_cmim l=10u w=10u
X109 vdd.t16 dw_n3746_n7778.t7 vout.t14 vdd.t0 sg13_lv_pmos ad=0.95p pd=5.38u as=0.95p ps=5.38u w=5u l=0.13u
X110 a_n3394_n9100.t19 vss.t60 cap_cmim l=10u w=10u
X111 a_n3394_n9100.t21 vss.t62 cap_cmim l=10u w=10u
X112 a_n3636_n7694.t1 a_n3394_n9100.t0 vss.t3 rsil l=2.5u w=0.5u
X113 vdd.t29 vss.t57 cap_cmim l=10u w=10u
X114 vdd.t30 vss.t56 cap_cmim l=10u w=10u
X115 vout.t5 dw_n3746_n7778.t24 vdd.t19 vdd.t0 sg13_lv_pmos ad=0.95p pd=5.38u as=0.95p ps=5.38u w=5u l=0.13u
R0 rfin rfin.t0 0.0961096
R1 vref.n0 vref.t0 21.7505
R2 vref vref.t1 12.393
R3 vref.n0 vref.t2 7.22609
R4 vref vref.n0 0.0365656
R5 vout.n5 vout.t0 21.7505
R6 vout.n8 vout.t2 6.4619
R7 vout.n12 vout.t9 6.3967
R8 vout.n12 vout.t19 6.39662
R9 vout.n12 vout.t1 6.39662
R10 vout.n12 vout.t20 6.39662
R11 vout.n12 vout.t8 6.39662
R12 vout.n6 vout.t16 6.39662
R13 vout.n7 vout.t18 6.39662
R14 vout.n9 vout.t7 6.39662
R15 vout.n8 vout.t13 6.39662
R16 vout.n0 vout.t12 3.54599
R17 vout.n4 vout.t3 3.5116
R18 vout.n4 vout.t6 3.5116
R19 vout.n4 vout.t4 3.5116
R20 vout.n4 vout.t5 3.5116
R21 vout.n4 vout.t15 3.5116
R22 vout.n3 vout.t17 3.5116
R23 vout.n2 vout.t11 3.5116
R24 vout.n1 vout.t14 3.5116
R25 vout.n0 vout.t10 3.5116
R26 vout.n11 vout.n10 0.732664
R27 vout vout.n12 0.155939
R28 vout.n5 vout.n4 0.148332
R29 vout.n11 vout.n6 0.12466
R30 vout.n4 vout.n3 0.0926389
R31 vout.n7 vout.n6 0.06578
R32 vout.n9 vout.n8 0.06578
R33 vout.n10 vout.n9 0.06258
R34 vout.n3 vout.n2 0.0348908
R35 vout.n2 vout.n1 0.0348908
R36 vout.n1 vout.n0 0.0348908
R37 vout.n12 vout.n11 0.0146869
R38 vout vout.n5 0.00564019
R39 vout.n10 vout.n7 0.0037
R40 vdd.t33 vdd.t6 19.16
R41 vdd.n7 vdd.t9 11.2433
R42 vdd.n8 vdd.t7 11.2433
R43 vdd.n13 vdd.t11 3.5756
R44 vdd.n0 vdd.t8 3.5756
R45 vdd.n13 vdd.t10 3.5316
R46 vdd.n14 vdd.t14 3.5316
R47 vdd.n15 vdd.t15 3.5316
R48 vdd.n16 vdd.t16 3.5316
R49 vdd.n17 vdd.t20 3.5316
R50 vdd.n18 vdd.t4 3.5316
R51 vdd.n5 vdd.t21 3.5316
R52 vdd.n4 vdd.t19 3.5316
R53 vdd.n3 vdd.t2 3.5316
R54 vdd.n2 vdd.t5 3.5316
R55 vdd.n1 vdd.t12 3.5316
R56 vdd.n0 vdd.t1 3.5316
R57 vdd.n11 vdd.n7 1.42974
R58 vdd.n8 vdd.n6 1.42344
R59 vdd.n9 vdd.n7 1.39035
R60 vdd.n9 vdd.n8 1.38309
R61 vdd.n12 vdd.n6 0.79802
R62 vdd.n12 vdd.n11 0.79691
R63 vdd.n20 vdd.n19 0.387055
R64 vdd.n10 vdd.t0 0.112342
R65 vdd.n1 vdd.n0 0.0885
R66 vdd.n2 vdd.n1 0.0885
R67 vdd.n3 vdd.n2 0.0885
R68 vdd.n4 vdd.n3 0.0885
R69 vdd.n5 vdd.n4 0.0885
R70 vdd.n18 vdd.n17 0.0885
R71 vdd.n17 vdd.n16 0.0885
R72 vdd.n16 vdd.n15 0.0885
R73 vdd.n15 vdd.n14 0.0885
R74 vdd.n14 vdd.n13 0.0885
R75 vdd.n19 vdd.n12 0.0862143
R76 vdd.t37 vdd.n20 0.0843
R77 vdd.n20 vdd.t42 0.0843
R78 vdd.n10 vdd.n6 0.0830341
R79 vdd.n11 vdd.n10 0.0827984
R80 vdd.n19 vdd.n5 0.0445
R81 vdd.n19 vdd.n18 0.0445
R82 vdd.t38 vdd.t37 0.0332986
R83 vdd.t42 vdd.t43 0.0332986
R84 vdd.n10 vdd.n9 0.0273723
R85 vdd.t52 vdd.t51 0.02588
R86 vdd.t51 vdd.t50 0.02588
R87 vdd.t44 vdd.t49 0.02588
R88 vdd.t41 vdd.t43 0.02588
R89 vdd.t40 vdd.t41 0.02588
R90 vdd.t36 vdd.t35 0.02588
R91 vdd.t38 vdd.t36 0.02588
R92 vdd.t32 vdd.t33 0.02588
R93 vdd.t31 vdd.t32 0.02588
R94 vdd.t30 vdd.t31 0.02588
R95 vdd.t29 vdd.t30 0.02588
R96 vdd.t39 vdd.t34 0.02588
R97 vdd.t44 vdd.t39 0.02588
R98 vdd.t46 vdd.t45 0.02588
R99 vdd.t47 vdd.t46 0.02588
R100 vdd.t48 vdd.t47 0.02588
R101 vdd.t57 vdd.t58 0.02588
R102 vdd.t56 vdd.t57 0.02588
R103 vdd.t55 vdd.t56 0.02588
R104 vdd vdd.t55 0.0254336
R105 vdd.t53 vdd.t52 0.01688
R106 vdd.t50 vdd.t49 0.01688
R107 vdd.t54 vdd.t49 0.01688
R108 vdd.t39 vdd.t40 0.01688
R109 vdd.t34 vdd.t35 0.01688
R110 vdd.t34 vdd.t29 0.01688
R111 vdd.t45 vdd.t44 0.01688
R112 vdd.t53 vdd.t48 0.01688
R113 vdd.t58 vdd.t53 0.01688
R114 vdd.t45 vdd.t50 0.00788
R115 vdd.t55 vdd.t50 0.00788
R116 vdd.t46 vdd.t51 0.00788
R117 vdd.t56 vdd.t51 0.00788
R118 vdd.t47 vdd.t52 0.00788
R119 vdd.t57 vdd.t52 0.00788
R120 vdd.t31 vdd.t36 0.00788
R121 vdd.t45 vdd.t40 0.00788
R122 vdd.t36 vdd.t41 0.00788
R123 vdd.t46 vdd.t41 0.00788
R124 vdd.t38 vdd.t43 0.00788
R125 vdd.t47 vdd.t43 0.00788
R126 vdd.t30 vdd.t35 0.00788
R127 vdd.t35 vdd.t40 0.00788
R128 vdd.t32 vdd.t38 0.00788
R129 vdd.t54 vdd 0.000946429
R130 vss.n84 vss.t4 5876.96
R131 vss.n76 vss.n75 5537.89
R132 vss.n110 vss.n85 4909.32
R133 vss.t20 vss.n84 3087.21
R134 vss.n75 vss.t3 1588.69
R135 vss.n85 vss.n35 1457.85
R136 vss.t4 vss.n83 931.034
R137 vss.t3 vss.n74 931.034
R138 vss.n54 vss.n36 842.245
R139 vss.n35 vss.n20 817.216
R140 vss.n56 vss.n35 735.946
R141 vss.n76 vss.n54 446.913
R142 vss.n84 vss.n36 430.233
R143 vss.n83 vss.n37 206.898
R144 vss.n74 vss.n37 206.898
R145 vss.n76 vss.n71 198.214
R146 vss.n47 vss.n37 192.857
R147 vss.n85 vss.t20 99.8953
R148 vss.n69 vss.n40 31.2294
R149 vss.n69 vss.n41 31.2294
R150 vss.n67 vss.n41 31.2294
R151 vss.n67 vss.n42 31.2294
R152 vss.n65 vss.n42 31.2294
R153 vss.n65 vss.n43 31.2294
R154 vss.n62 vss.n43 31.2294
R155 vss.n62 vss.n44 31.2294
R156 vss.n58 vss.n44 31.2294
R157 vss.t90 vss.t1 30.5029
R158 vss.n110 vss.n26 26.7841
R159 vss.n20 vss.t26 19.3129
R160 vss.n26 vss.t22 19.309
R161 vss.n33 vss.t58 17.644
R162 vss.n25 vss.t91 17.644
R163 vss.n32 vss.t93 17.644
R164 vss.n24 vss.t103 17.644
R165 vss.n23 vss.t86 17.644
R166 vss.n30 vss.t102 17.644
R167 vss.n22 vss.t14 17.644
R168 vss.n29 vss.t87 17.644
R169 vss.n21 vss.t11 17.644
R170 vss.n73 vss.n72 17.0181
R171 vss.n38 vss.n36 17.0005
R172 vss.n81 vss.n47 17.0005
R173 vss.n81 vss.n45 17.0005
R174 vss.n78 vss.n71 17.0005
R175 vss.n78 vss.n63 17.0005
R176 vss.n81 vss.n80 17.0005
R177 vss.n78 vss.n77 17.0005
R178 vss.n77 vss.n73 17.0005
R179 vss.n95 vss.n94 17.0005
R180 vss.n71 vss.n40 15.6239
R181 vss.n58 vss.n47 15.6061
R182 vss.t0 vss.t16 14.6536
R183 vss.n33 vss.t18 12.8594
R184 vss.n25 vss.t96 12.8594
R185 vss.n32 vss.t8 12.8594
R186 vss.n24 vss.t92 12.8594
R187 vss.n31 vss.t97 12.8594
R188 vss.n23 vss.t76 12.8594
R189 vss.n30 vss.t78 12.8594
R190 vss.n22 vss.t66 12.8594
R191 vss.n29 vss.t64 12.8594
R192 vss.n21 vss.t95 12.8594
R193 vss.t18 vss.n9 12.1076
R194 vss.t8 vss.n11 12.1076
R195 vss.t97 vss.n13 12.1076
R196 vss.t78 vss.n15 12.1076
R197 vss.t64 vss.n17 12.1076
R198 vss.t26 vss.n19 12.1076
R199 vss.t22 vss.n8 12.1071
R200 vss.t96 vss.n10 12.1071
R201 vss.t92 vss.n12 12.1071
R202 vss.t95 vss.n18 12.1071
R203 vss.t66 vss.n16 12.1071
R204 vss.t76 vss.n14 12.1071
R205 vss.n7 vss.t25 11.2187
R206 vss.n92 vss.t21 11.2187
R207 vss.n77 vss.n76 10.168
R208 vss.n57 vss.n56 8.501
R209 vss.n110 vss.n86 8.501
R210 vss.n110 vss.n87 8.501
R211 vss.n110 vss.n88 8.501
R212 vss.n110 vss.n89 8.501
R213 vss.n110 vss.n90 8.501
R214 vss.n110 vss.n91 8.501
R215 vss.n110 vss.n109 8.501
R216 vss.n111 vss.n110 8.501
R217 vss.n112 vss.n25 8.5005
R218 vss.n112 vss.n24 8.5005
R219 vss.n112 vss.n23 8.5005
R220 vss.n112 vss.n22 8.5005
R221 vss.n112 vss.n21 8.5005
R222 vss.n112 vss.n29 8.5005
R223 vss.n112 vss.n30 8.5005
R224 vss.n112 vss.n31 8.5005
R225 vss.n112 vss.n32 8.5005
R226 vss.n112 vss.n33 8.5005
R227 vss.n72 vss.n38 8.49245
R228 vss.n78 vss.n60 8.49245
R229 vss.n81 vss.n48 8.49245
R230 vss.n81 vss.n49 8.49245
R231 vss.n81 vss.n50 8.49245
R232 vss.n81 vss.n51 8.49245
R233 vss.n81 vss.n52 8.49245
R234 vss.n78 vss.n59 8.49245
R235 vss.n81 vss.n46 8.49233
R236 vss.n79 vss.n78 8.49233
R237 vss.n78 vss.n70 8.49232
R238 vss.n78 vss.n68 8.49232
R239 vss.n78 vss.n66 8.49232
R240 vss.n78 vss.n64 8.49232
R241 vss.n97 vss.n96 8.46995
R242 vss.n99 vss.n98 8.46995
R243 vss.n103 vss.n102 8.46995
R244 vss.n105 vss.n104 8.46995
R245 vss.n108 vss.n107 8.46995
R246 vss.n106 vss.n34 8.46995
R247 vss.n101 vss.n100 8.46086
R248 vss.t58 vss.n8 7.32294
R249 vss.t93 vss.n10 7.32294
R250 vss.t16 vss.n12 7.32294
R251 vss.n14 vss.t90 7.32294
R252 vss.t102 vss.n16 7.32294
R253 vss.t87 vss.n18 7.32294
R254 vss.t86 vss.n15 7.32242
R255 vss.t14 vss.n17 7.32242
R256 vss.t11 vss.n19 7.32242
R257 vss.t1 vss.n13 7.32242
R258 vss.t103 vss.n11 7.32242
R259 vss.t91 vss.n9 7.32242
R260 vss.n74 vss.n61 5.66778
R261 vss.n83 vss.n82 5.66767
R262 vss.n94 vss.n93 5.61281
R263 vss.n0 vss.t23 4.80673
R264 vss.n115 vss.t27 4.80673
R265 vss.n0 vss.t24 4.76273
R266 vss.n1 vss.t19 4.76273
R267 vss.n2 vss.t94 4.76273
R268 vss.n3 vss.t9 4.76273
R269 vss.n4 vss.t17 4.76273
R270 vss.n5 vss.t2 4.76273
R271 vss.n120 vss.t77 4.76273
R272 vss.n119 vss.t79 4.76273
R273 vss.n118 vss.t67 4.76273
R274 vss.n117 vss.t15 4.76273
R275 vss.n116 vss.t88 4.76273
R276 vss.n115 vss.t12 4.76273
R277 vss.n56 vss.n39 4.75145
R278 vss.n77 vss.n39 4.75092
R279 vss.n110 vss.n27 4.251
R280 vss.n55 vss.n53 3.64788
R281 vss.n73 vss.n55 3.64523
R282 vss.n31 vss.t0 2.99093
R283 vss.n112 vss.n19 1.93648
R284 vss.n112 vss.n18 1.93648
R285 vss.n112 vss.n17 1.93648
R286 vss.n112 vss.n16 1.93648
R287 vss.n112 vss.n15 1.93648
R288 vss.n112 vss.n14 1.93648
R289 vss.n112 vss.n13 1.93648
R290 vss.n112 vss.n12 1.93648
R291 vss.n112 vss.n11 1.93648
R292 vss.n112 vss.n10 1.93648
R293 vss.n112 vss.n9 1.93648
R294 vss.n112 vss.n8 1.93648
R295 vss.n81 vss.n39 1.87635
R296 vss.n93 vss.n28 1.59598
R297 vss.n28 vss.n7 1.37506
R298 vss.n113 vss.n7 1.31765
R299 vss.n75 vss.n73 1.21479
R300 vss.n106 vss.n6 0.740759
R301 vss.n114 vss.n113 0.714566
R302 vss.n78 vss.n69 0.698466
R303 vss.n78 vss.n67 0.698466
R304 vss.n78 vss.n65 0.698466
R305 vss.n78 vss.n62 0.698466
R306 vss.n78 vss.n58 0.698466
R307 vss.n81 vss.n44 0.689564
R308 vss.n81 vss.n43 0.689564
R309 vss.n81 vss.n42 0.689564
R310 vss.n81 vss.n41 0.689564
R311 vss.n81 vss.n40 0.689564
R312 vss.n112 vss.n6 0.570224
R313 vss.n114 vss.n6 0.440033
R314 vss.n101 vss.n99 0.268558
R315 vss.n103 vss.n101 0.268558
R316 vss.n122 vss.n121 0.257643
R317 vss.n99 vss.n97 0.250378
R318 vss.n105 vss.n103 0.250378
R319 vss.n107 vss.n105 0.250378
R320 vss.n107 vss.n106 0.250378
R321 vss.n97 vss.n95 0.187772
R322 vss.n113 vss.n112 0.176427
R323 vss.n93 vss.n92 0.165419
R324 vss.t63 vss.t61 0.09994
R325 vss.t73 vss.t68 0.09994
R326 vss.t28 vss.t72 0.09994
R327 vss.t33 vss.t34 0.09994
R328 vss.t29 vss.t30 0.09994
R329 vss.t36 vss.t35 0.09994
R330 vss.t45 vss.t46 0.09994
R331 vss.t10 vss.t13 0.09994
R332 vss.t13 vss.t80 0.09994
R333 vss.t59 vss.t84 0.09994
R334 vss.t83 vss.t98 0.09994
R335 vss.t75 vss.t62 0.09994
R336 vss.t65 vss.t71 0.09994
R337 vss.t99 vss.t81 0.09994
R338 vss.t82 vss.t81 0.09994
R339 vss.t62 vss.t69 0.09994
R340 vss.t85 vss.t60 0.09994
R341 vss.t69 vss.t60 0.09994
R342 vss.t70 vss.t83 0.09994
R343 vss.t59 vss.t7 0.09994
R344 vss.t100 vss.t10 0.09994
R345 vss.t54 vss.t55 0.09994
R346 vss.t54 vss.t53 0.09994
R347 vss.t53 vss.t101 0.09994
R348 vss.t6 vss.t5 0.09994
R349 vss.t101 vss.t100 0.09994
R350 vss.t89 vss.t74 0.09994
R351 vss.t85 vss.t38 0.09994
R352 vss.t38 vss.t39 0.09994
R353 vss.t40 vss.t39 0.09994
R354 vss.t41 vss.t40 0.09994
R355 vss.t45 vss.t43 0.09994
R356 vss.t48 vss.t50 0.09994
R357 vss.t51 vss.t50 0.09994
R358 vss.t55 vss.t56 0.09994
R359 vss.t56 vss.t57 0.09994
R360 vss.t51 vss.t52 0.09994
R361 vss.t46 vss.t47 0.09994
R362 vss.t42 vss.t41 0.09994
R363 vss.t31 vss.t32 0.09994
R364 vss.t37 vss.t36 0.09994
R365 vss.t30 vss.t31 0.09994
R366 vss.t34 vss.t35 0.09994
R367 vss.t29 vss.t28 0.09994
R368 vss.t33 vss.t68 0.09994
R369 vss.t72 vss.t63 0.09994
R370 vss.t73 vss.t82 0.09994
R371 vss vss.t65 0.0979757
R372 vss.t48 vss.t49 0.0904498
R373 vss.t43 vss.t44 0.0904498
R374 vss.n1 vss.n0 0.0885
R375 vss.n2 vss.n1 0.0885
R376 vss.n3 vss.n2 0.0885
R377 vss.n4 vss.n3 0.0885
R378 vss.n5 vss.n4 0.0885
R379 vss.n120 vss.n119 0.0885
R380 vss.n119 vss.n118 0.0885
R381 vss.n118 vss.n117 0.0885
R382 vss.n117 vss.n116 0.0885
R383 vss.n116 vss.n115 0.0885
R384 vss.n121 vss.n114 0.0862143
R385 vss.n95 vss.n92 0.0848333
R386 vss.t70 vss.n124 0.0707114
R387 vss.n123 vss.t7 0.0707114
R388 vss.n121 vss.n5 0.0445
R389 vss.n121 vss.n120 0.0445
R390 vss.n112 vss.n28 0.0413403
R391 vss.n79 vss.n52 0.0359606
R392 vss.n70 vss.n52 0.0359606
R393 vss.n70 vss.n51 0.0359606
R394 vss.n68 vss.n51 0.0359606
R395 vss.n68 vss.n50 0.0359606
R396 vss.n66 vss.n50 0.0359606
R397 vss.n66 vss.n49 0.0359606
R398 vss.n64 vss.n49 0.0359606
R399 vss.n64 vss.n48 0.0359606
R400 vss.n59 vss.n46 0.0359606
R401 vss.n60 vss.n46 0.0359606
R402 vss.n72 vss.n60 0.0357199
R403 vss.n63 vss.n45 0.0352368
R404 vss.n80 vss.n55 0.0313772
R405 vss.t5 vss.n123 0.0297286
R406 vss.n124 vss.t89 0.0297286
R407 vss.n124 vss.n122 0.0233627
R408 vss.n123 vss.n122 0.0225
R409 vss.n80 vss.n79 0.0183507
R410 vss.n63 vss.n48 0.01811
R411 vss.n59 vss.n45 0.01811
R412 vss.t89 vss.t60 0.01194
R413 vss.t69 vss.t82 0.01194
R414 vss.t84 vss.t80 0.01194
R415 vss.t84 vss.t98 0.01194
R416 vss.t75 vss.t98 0.01194
R417 vss.t65 vss.t81 0.01194
R418 vss.t71 vss.t99 0.01194
R419 vss.t99 vss.t75 0.01194
R420 vss.t62 vss.t81 0.01194
R421 vss.t62 vss.t83 0.01194
R422 vss.t69 vss.t70 0.01194
R423 vss.t70 vss.t7 0.01194
R424 vss.t59 vss.t83 0.01194
R425 vss.t13 vss.t59 0.01194
R426 vss.t10 vss.t7 0.01194
R427 vss.t74 vss.t6 0.01194
R428 vss.t101 vss.t6 0.01194
R429 vss.t89 vss.t5 0.01194
R430 vss.t100 vss.t5 0.01194
R431 vss.t85 vss.t68 0.01194
R432 vss.t74 vss.t85 0.01194
R433 vss.t34 vss.t39 0.01194
R434 vss.t43 vss.t39 0.01194
R435 vss.t40 vss.t45 0.01194
R436 vss.t45 vss.t50 0.01194
R437 vss.t43 vss.t48 0.01194
R438 vss.t48 vss.t54 0.01194
R439 vss.t55 vss.t50 0.01194
R440 vss.t52 vss.t57 0.01194
R441 vss.t51 vss.t46 0.01194
R442 vss.t56 vss.t51 0.01194
R443 vss.t42 vss.t47 0.01194
R444 vss.t52 vss.t47 0.01194
R445 vss.t41 vss.t36 0.01194
R446 vss.t41 vss.t46 0.01194
R447 vss.t32 vss.t37 0.01194
R448 vss.t37 vss.t42 0.01194
R449 vss.t31 vss.t36 0.01194
R450 vss.t30 vss.t35 0.01194
R451 vss.t40 vss.t35 0.01194
R452 vss.t34 vss.t29 0.01194
R453 vss.t33 vss.t28 0.01194
R454 vss.t38 vss.t33 0.01194
R455 vss.t72 vss.t68 0.01194
R456 vss.t63 vss.t73 0.01194
R457 vss.t73 vss.t60 0.01194
R458 vss.t82 vss.t61 0.01194
R459 vss.n112 vss.n26 0.00751867
R460 vss.n53 vss.n38 0.00630064
R461 vss.n81 vss.n53 0.00269837
R462 vss vss.t61 0.00246429
R463 vss.n112 vss.n27 0.00175
R464 vss.n73 vss.n61 0.00166667
R465 vss.n112 vss.n20 0.00154033
R466 vss.n78 vss.n61 0.00133332
R467 vss.n94 vss.n27 0.00124998
R468 vss.n81 vss.n54 0.00101009
R469 vss.n73 vss.n57 0.001
R470 vss.n82 vss.n38 0.001
R471 vss.n82 vss.n81 0.001
R472 vss.n78 vss.n57 0.001
R473 vss.n94 vss.n86 0.001
R474 vss.n96 vss.n87 0.001
R475 vss.n98 vss.n88 0.001
R476 vss.n100 vss.n89 0.001
R477 vss.n102 vss.n90 0.001
R478 vss.n104 vss.n91 0.001
R479 vss.n109 vss.n108 0.001
R480 vss.n111 vss.n34 0.001
R481 vss.n96 vss.n86 0.001
R482 vss.n98 vss.n87 0.001
R483 vss.n100 vss.n88 0.001
R484 vss.n102 vss.n89 0.001
R485 vss.n104 vss.n90 0.001
R486 vss.n108 vss.n91 0.001
R487 vss.n109 vss.n34 0.001
R488 vss.n112 vss.n111 0.001
R489 a_n2470_n8530.t0 a_n2470_n8530.t1 17.755
R490 a_n3636_n7694.t1 a_n3636_n7694.n0 16.029
R491 a_n3636_n7694.n0 a_n3636_n7694.t0 1.5005
R492 a_n3636_n7694.n0 a_n3636_n7694.t2 1.72641
R493 a_n3394_n9100.n0 a_n3394_n9100.t1 15.0005
R494 a_n3394_n9100.t0 a_n3394_n9100.n0 16.1053
R495 a_n3394_n9100.n0 a_n3394_n9100.n1 4.99833
R496 a_n3394_n9100.n1 a_n3394_n9100.t2 16.4423
R497 a_n3394_n9100.n1 a_n3394_n9100.t3 4.16423
R498 a_n3394_n9100.t3 a_n3394_n9100.t8 0.02588
R499 a_n3394_n9100.t8 a_n3394_n9100.t13 0.02588
R500 a_n3394_n9100.t13 a_n3394_n9100.t18 0.02588
R501 a_n3394_n9100.t18 a_n3394_n9100.t23 0.02588
R502 a_n3394_n9100.t23 a_n3394_n9100.t28 0.01688
R503 a_n3394_n9100.t29 a_n3394_n9100.t28 0.02588
R504 a_n3394_n9100.t30 a_n3394_n9100.t29 0.02588
R505 a_n3394_n9100.t31 a_n3394_n9100.t30 0.02588
R506 a_n3394_n9100.t31 a_n3394_n9100.t32 0.02588
R507 a_n3394_n9100.t27 a_n3394_n9100.t32 0.01688
R508 a_n3394_n9100.t22 a_n3394_n9100.t27 0.02588
R509 a_n3394_n9100.t17 a_n3394_n9100.t22 0.02588
R510 a_n3394_n9100.t12 a_n3394_n9100.t17 0.02588
R511 a_n3394_n9100.t7 a_n3394_n9100.t12 0.01688
R512 a_n3394_n9100.t6 a_n3394_n9100.t7 0.02588
R513 a_n3394_n9100.t5 a_n3394_n9100.t6 0.02588
R514 a_n3394_n9100.t4 a_n3394_n9100.t5 0.02588
R515 a_n3394_n9100.t3 a_n3394_n9100.t4 0.01688
R516 a_n3394_n9100.t4 a_n3394_n9100.t9 0.00788
R517 a_n3394_n9100.t9 a_n3394_n9100.t8 0.01688
R518 a_n3394_n9100.t9 a_n3394_n9100.t10 0.02588
R519 a_n3394_n9100.t10 a_n3394_n9100.t11 0.02588
R520 a_n3394_n9100.t11 a_n3394_n9100.t12 0.01688
R521 a_n3394_n9100.t11 a_n3394_n9100.t16 0.00788
R522 a_n3394_n9100.t6 a_n3394_n9100.t11 0.00788
R523 a_n3394_n9100.t16 a_n3394_n9100.t15 0.02588
R524 a_n3394_n9100.t15 a_n3394_n9100.t14 0.02588
R525 a_n3394_n9100.t14 a_n3394_n9100.t13 0.01688
R526 a_n3394_n9100.t14 a_n3394_n9100.t19 0.00788
R527 a_n3394_n9100.t9 a_n3394_n9100.t14 0.00788
R528 a_n3394_n9100.t19 a_n3394_n9100.t18 0.01688
R529 a_n3394_n9100.t19 a_n3394_n9100.t20 0.02588
R530 a_n3394_n9100.t20 a_n3394_n9100.t21 0.02588
R531 a_n3394_n9100.t21 a_n3394_n9100.t22 0.01688
R532 a_n3394_n9100.t21 a_n3394_n9100.t26 0.00788
R533 a_n3394_n9100.t16 a_n3394_n9100.t21 0.00788
R534 a_n3394_n9100.t25 a_n3394_n9100.t26 0.02588
R535 a_n3394_n9100.t24 a_n3394_n9100.t25 0.02588
R536 a_n3394_n9100.t24 a_n3394_n9100.t23 0.01688
R537 a_n3394_n9100.t24 a_n3394_n9100.t29 0.00788
R538 a_n3394_n9100.t19 a_n3394_n9100.t24 0.00788
R539 a_n3394_n9100.t25 a_n3394_n9100.t30 0.00788
R540 a_n3394_n9100.t20 a_n3394_n9100.t25 0.00788
R541 a_n3394_n9100.t26 a_n3394_n9100.t27 0.01688
R542 a_n3394_n9100.t26 a_n3394_n9100.t31 0.00788
R543 a_n3394_n9100.t15 a_n3394_n9100.t20 0.00788
R544 a_n3394_n9100.t10 a_n3394_n9100.t15 0.00788
R545 a_n3394_n9100.t16 a_n3394_n9100.t17 0.01688
R546 a_n3394_n9100.t5 a_n3394_n9100.t10 0.00788
R547 dw_n2478_n7778.t1 dw_n2478_n7778.n2 17.7428
R548 dw_n2478_n7778.n2 dw_n2478_n7778.n3 0.404569
R549 dw_n2478_n7778.n3 dw_n2478_n7778.t4 8.03992
R550 dw_n2478_n7778.n3 dw_n2478_n7778.t5 8.03992
R551 dw_n2478_n7778.n2 dw_n2478_n7778.n1 0.64642
R552 dw_n2478_n7778.n1 dw_n2478_n7778.t0 7.56011
R553 dw_n2478_n7778.n1 dw_n2478_n7778.n0 1.05753
R554 dw_n2478_n7778.n0 dw_n2478_n7778.t2 8.03992
R555 dw_n2478_n7778.n0 dw_n2478_n7778.t3 8.03992
R556 dw_n3746_n7778.t0 dw_n3746_n7778.n37 19.8615
R557 dw_n3746_n7778.n36 dw_n3746_n7778.n0 0.454433
R558 dw_n3746_n7778.n37 dw_n3746_n7778.n36 0.2953
R559 dw_n3746_n7778.n37 dw_n3746_n7778.n18 0.452967
R560 dw_n3746_n7778.n36 dw_n3746_n7778.t1 7.69608
R561 dw_n3746_n7778.n34 dw_n3746_n7778.n35 0.0409324
R562 dw_n3746_n7778.n33 dw_n3746_n7778.n34 0.0409324
R563 dw_n3746_n7778.n32 dw_n3746_n7778.n33 0.0409324
R564 dw_n3746_n7778.n18 dw_n3746_n7778.n32 0.0409324
R565 dw_n3746_n7778.n18 dw_n3746_n7778.n31 0.0409324
R566 dw_n3746_n7778.n31 dw_n3746_n7778.n30 0.0409324
R567 dw_n3746_n7778.n30 dw_n3746_n7778.n29 0.0409324
R568 dw_n3746_n7778.n29 dw_n3746_n7778.n28 0.0409324
R569 dw_n3746_n7778.n28 dw_n3746_n7778.n27 0.121797
R570 dw_n3746_n7778.n27 dw_n3746_n7778.n26 0.0409324
R571 dw_n3746_n7778.n26 dw_n3746_n7778.n25 0.0409324
R572 dw_n3746_n7778.n25 dw_n3746_n7778.n24 0.0409324
R573 dw_n3746_n7778.n24 dw_n3746_n7778.n23 0.0409324
R574 dw_n3746_n7778.n23 dw_n3746_n7778.n22 0.0409324
R575 dw_n3746_n7778.n22 dw_n3746_n7778.n21 0.0409324
R576 dw_n3746_n7778.n21 dw_n3746_n7778.n20 0.0409324
R577 dw_n3746_n7778.n20 dw_n3746_n7778.n19 0.0409324
R578 dw_n3746_n7778.n35 dw_n3746_n7778.t2 11.0804
R579 dw_n3746_n7778.n35 dw_n3746_n7778.t3 11.0399
R580 dw_n3746_n7778.n34 dw_n3746_n7778.t4 11.0399
R581 dw_n3746_n7778.n33 dw_n3746_n7778.t5 11.0399
R582 dw_n3746_n7778.n32 dw_n3746_n7778.t6 11.0399
R583 dw_n3746_n7778.n18 dw_n3746_n7778.t7 11.0399
R584 dw_n3746_n7778.n31 dw_n3746_n7778.t8 11.0399
R585 dw_n3746_n7778.n30 dw_n3746_n7778.t9 11.0399
R586 dw_n3746_n7778.n29 dw_n3746_n7778.t10 11.0399
R587 dw_n3746_n7778.n28 dw_n3746_n7778.t11 11.0399
R588 dw_n3746_n7778.n27 dw_n3746_n7778.t22 11.0399
R589 dw_n3746_n7778.n26 dw_n3746_n7778.t23 11.0399
R590 dw_n3746_n7778.n25 dw_n3746_n7778.t24 11.0399
R591 dw_n3746_n7778.n24 dw_n3746_n7778.t25 11.0399
R592 dw_n3746_n7778.n23 dw_n3746_n7778.t29 11.0399
R593 dw_n3746_n7778.n22 dw_n3746_n7778.t30 11.0399
R594 dw_n3746_n7778.n21 dw_n3746_n7778.t31 11.0399
R595 dw_n3746_n7778.n20 dw_n3746_n7778.t32 11.0399
R596 dw_n3746_n7778.n19 dw_n3746_n7778.t33 11.0399
R597 dw_n3746_n7778.n19 dw_n3746_n7778.t34 11.0804
R598 dw_n3746_n7778.n16 dw_n3746_n7778.n17 0.0409324
R599 dw_n3746_n7778.n15 dw_n3746_n7778.n16 0.0409324
R600 dw_n3746_n7778.n14 dw_n3746_n7778.n15 0.0409324
R601 dw_n3746_n7778.n0 dw_n3746_n7778.n14 0.0409324
R602 dw_n3746_n7778.n0 dw_n3746_n7778.n13 0.0409324
R603 dw_n3746_n7778.n13 dw_n3746_n7778.n12 0.0409324
R604 dw_n3746_n7778.n12 dw_n3746_n7778.n11 0.0409324
R605 dw_n3746_n7778.n11 dw_n3746_n7778.n10 0.0409324
R606 dw_n3746_n7778.n10 dw_n3746_n7778.n9 0.121797
R607 dw_n3746_n7778.n9 dw_n3746_n7778.n8 0.0409324
R608 dw_n3746_n7778.n8 dw_n3746_n7778.n7 0.0409324
R609 dw_n3746_n7778.n7 dw_n3746_n7778.n6 0.0409324
R610 dw_n3746_n7778.n6 dw_n3746_n7778.n5 0.0409324
R611 dw_n3746_n7778.n5 dw_n3746_n7778.n4 0.0409324
R612 dw_n3746_n7778.n4 dw_n3746_n7778.n3 0.0409324
R613 dw_n3746_n7778.n3 dw_n3746_n7778.n2 0.0409324
R614 dw_n3746_n7778.n2 dw_n3746_n7778.n1 0.0409324
R615 dw_n3746_n7778.n17 dw_n3746_n7778.t12 11.0804
R616 dw_n3746_n7778.n17 dw_n3746_n7778.t13 11.0399
R617 dw_n3746_n7778.n16 dw_n3746_n7778.t14 11.0399
R618 dw_n3746_n7778.n15 dw_n3746_n7778.t15 11.0399
R619 dw_n3746_n7778.n14 dw_n3746_n7778.t16 11.0399
R620 dw_n3746_n7778.n0 dw_n3746_n7778.t17 11.0399
R621 dw_n3746_n7778.n13 dw_n3746_n7778.t18 11.0399
R622 dw_n3746_n7778.n12 dw_n3746_n7778.t19 11.0399
R623 dw_n3746_n7778.n11 dw_n3746_n7778.t20 11.0399
R624 dw_n3746_n7778.n10 dw_n3746_n7778.t21 11.0399
R625 dw_n3746_n7778.n9 dw_n3746_n7778.t26 11.0399
R626 dw_n3746_n7778.n8 dw_n3746_n7778.t27 11.0399
R627 dw_n3746_n7778.n7 dw_n3746_n7778.t28 11.0399
R628 dw_n3746_n7778.n6 dw_n3746_n7778.t35 11.0399
R629 dw_n3746_n7778.n5 dw_n3746_n7778.t36 11.0399
R630 dw_n3746_n7778.n4 dw_n3746_n7778.t37 11.0399
R631 dw_n3746_n7778.n3 dw_n3746_n7778.t38 11.0399
R632 dw_n3746_n7778.n2 dw_n3746_n7778.t39 11.0399